version 2
run General-0-20190411-15:07:17-24896
attr configname General
attr datetime 20190411-15:07:17
attr experiment General
attr inifile 05_example_strict_priority2.ini
attr iterationvars ""
attr iterationvarsf ""
attr measurement ""
attr network TestScenario2
attr processid 24896
attr repetition 0
attr replication #0
attr resultdir results_strict_priority
attr runnumber 0
attr seedset 0
param **.displayAddresses true
param **.verbose true
param **.promiscuous true
param **.registerProtocol true
param **.*.clock.clockRate "\"1us\""
param **.robotController.eth.address "\"01-00-00-00-00-01\""
param **.workstation1.eth.address "\"01-01-00-00-00-02\""
param **.workstation2.eth.address "\"01-00-00-00-00-03\""
param **.roboticArm.eth.address "\"01-00-00-00-00-04\""
param **.backupServer.eth.address "\"01-00-00-00-00-05\""
param **.switch*.processingDelay[*].delay 5us
param **.filteringDatabase.database "xmldoc(\"xml/TestScenarioRouting2.xml\", \"/filteringDatabases/\")"
param **.filteringDatabase.cycle "xmldoc(\"xml/TestScenarioSchedule2.xml\", \"/schedule/\")"
param **.gateController.initialSchedule "xmldoc(\"xml/TestScenarioSchedule_AllOpen2.xml\")"
param **.gateController.enableHoldAndRelease false
param **.switch*.eth[*].queuing.tsAlgorithms[0].typename "\"StrictPriority\""
param **.switch*.eth[*].queuing.tsAlgorithms[1].typename "\"StrictPriority\""
param **.switch*.eth[*].queuing.tsAlgorithms[2].typename "\"StrictPriority\""
param **.switch*.eth[*].queuing.tsAlgorithms[3].typename "\"StrictPriority\""
param **.switch*.eth[*].queuing.tsAlgorithms[4].typename "\"StrictPriority\""
param **.switch*.eth[*].queuing.tsAlgorithms[5].typename "\"StrictPriority\""
param **.switch*.eth[*].queuing.tsAlgorithms[6].typename "\"StrictPriority\""
param **.switch*.eth[*].queuing.tsAlgorithms[7].typename "\"StrictPriority\""
param **.queues[0].expressQueue true
param **.queues[1].expressQueue true
param **.queues[2].expressQueue true
param **.queues[3].expressQueue true
param **.queues[4].expressQueue true
param **.queues[5].expressQueue true
param **.queues[6].expressQueue true
param **.queues[7].expressQueue true
param **.queues[*].bufferCapacity 363360b
param **.switchA.eth[3].mac.enablePreemptingFrames false
param **.switchA.eth[4].mac.enablePreemptingFrames false
param **.robotController.trafGenSchedApp.initialSchedule "xmldoc(\"xml/TestScenarioSchedule_AllOpen2.xml\")"
param **.workstation*.trafGenQueueApp.destAddress "\"01-00-00-00-00-05\""
param **.workstation*.trafGenQueueApp.packetLength 1500Byte-4Byte
param **.workstation*.trafGenQueueApp.vlanTagEnabled true
param **.workstation1.trafGenQueueApp.pcp 6
param **.workstation2.trafGenQueueApp.pcp 5
param **.roboticArm.trafGenApp.numPacketsPerBurst 0
param **.roboticArm.trafGenApp.sendInterval 1ms
param **.roboticArm.trafGenApp.packetLength 100B
param **.backupServer.trafGenApp.numPacketsPerBurst 0
param **.backupServer.trafGenApp.sendInterval 1ms
param **.backupServer.trafGenApp.packetLength 100B

scalar TestScenario2.switchA.eth[0].mac "simulated time" 6.1552279e-05
scalar TestScenario2.switchA.eth[0].mac full-duplex 1
scalar TestScenario2.switchA.eth[0].mac "frames/sec sent" 0
scalar TestScenario2.switchA.eth[0].mac "frames/sec rcvd" 16246.352145629
scalar TestScenario2.switchA.eth[0].mac "bits/sec sent" 0
scalar TestScenario2.switchA.eth[0].mac "bits/sec rcvd" 48869027.254052
scalar TestScenario2.switchA.eth[0].mac "rx channel idle (%)" 100
scalar TestScenario2.switchA.eth[0].mac "rx channel utilization (%)" 0
statistic TestScenario2.switchA.eth[0].mac pMacDelay:histogram
field count 0
field mean -nan
field stddev -nan
field min -nan
field max -nan
field sum 0
field sqrsum 0
attr interpolationmode none
attr title "pMacDelay, histogram"
bin	-inf	0
bin	0	0
bin	1	0
statistic TestScenario2.switchA.eth[0].mac eMacDelay:histogram
field count 0
field mean -nan
field stddev -nan
field min -nan
field max -nan
field sum 0
field sqrsum 0
attr interpolationmode none
attr title "eMacDelay, histogram"
bin	-inf	0
bin	0	0
bin	1	0
scalar TestScenario2.switchA.eth[0].mac expressFramesEnqueued:count 0
attr interpolationmode none
attr source expressFrameEnqueuedWhileSendingPreemptableSignal
attr title "express frames enqueued, count"
scalar TestScenario2.switchA.eth[0].mac mPacketsFull:count 0
attr interpolationmode none
attr source transmittedPreemptableFullSignal
attr title "mpackets full, count"
scalar TestScenario2.switchA.eth[0].mac mPacketsFinal:count 0
attr interpolationmode none
attr source transmittedPreemptableFinalSignal
attr title "mPackets final, count"
scalar TestScenario2.switchA.eth[0].mac mPacketsNonFinal:count 0
attr interpolationmode none
attr source transmittedPreemptableNonFinalSignal
attr title "mPackets non-final, count"
scalar TestScenario2.switchA.eth[0].mac mPackets:count 0
attr interpolationmode none
attr source transmittedPreemptableFramePartSignal
attr title "mPackets, count"
scalar TestScenario2.switchA.eth[0].mac preemptableFrames:count 0
attr interpolationmode none
attr source transmittedPreemptableFrameSignal
attr title "preemptableFrames, count"
scalar TestScenario2.switchA.eth[0].mac expressFrames:count 0
attr interpolationmode none
attr source transmittedExpressFrameSignal
attr title "expressFrames, count"
scalar TestScenario2.switchA.eth[0].mac preemptions:count 0
attr interpolationmode none
attr source preemptCurrentFrameSignal
attr title "preemptions, count"
scalar TestScenario2.switchA.eth[0].mac rxPausePkUnits:count 0
attr interpolationmode none
attr title "pause units received, count"
scalar TestScenario2.switchA.eth[0].mac rxPausePkUnits:sum 0
attr interpolationmode none
attr title "pause units received, sum"
scalar TestScenario2.switchA.eth[0].mac txPausePkUnits:count 0
attr interpolationmode none
attr title "pause units sent, count"
scalar TestScenario2.switchA.eth[0].mac txPausePkUnits:sum 0
attr interpolationmode none
attr title "pause units sent, sum"
scalar TestScenario2.switchA.eth[0].mac rxPkOk:count 1
attr interpolationmode none
attr source rxPkOk
attr title "packets received OK, count"
scalar TestScenario2.switchA.eth[0].mac rxPkOk:sum(packetBytes) 376
attr interpolationmode none
attr source rxPkOk
attr title "packets received OK, sum(packetBytes)"
scalar TestScenario2.switchA.eth[0].mac txPk:count 0
attr interpolationmode none
attr source packetSentToLower
attr title "packets transmitted, count"
scalar TestScenario2.switchA.eth[0].mac txPk:sum(packetBytes) 0
attr interpolationmode none
attr source packetSentToLower
attr title "packets transmitted, sum(packetBytes)"
scalar TestScenario2.switchA.eth[0].mac packetReceivedFromUpper:count 0
attr interpolationmode none
attr source packetReceivedFromUpper
attr title "packet bytes from higher layer, count"
scalar TestScenario2.switchA.eth[0].mac packetReceivedFromUpper:sum(packetBytes) 0
attr interpolationmode none
attr source packetReceivedFromUpper
attr title "packet bytes from higher layer, sum(packetBytes)"
scalar TestScenario2.switchA.eth[0].mac passedUpPk:count 1
attr interpolationmode none
attr source packetSentToUpper
attr title "packets passed to higher layer, count"
scalar TestScenario2.switchA.eth[0].mac passedUpPk:sum(packetBytes) 376
attr interpolationmode none
attr source packetSentToUpper
attr title "packets passed to higher layer, sum(packetBytes)"
scalar TestScenario2.switchA.eth[0].mac packetDropIncorrectlyReceived:count 0
attr interpolationmode none
attr source packetDropReasonIsIncorrectlyReceived(packetDropped)
attr title "packet drop: incorrectly received, count"
scalar TestScenario2.switchA.eth[0].mac packetDropIncorrectlyReceived:sum(packetBytes) 0
attr interpolationmode none
attr source packetDropReasonIsIncorrectlyReceived(packetDropped)
attr title "packet drop: incorrectly received, sum(packetBytes)"
scalar TestScenario2.switchA.eth[0].mac packetDropInterfaceDown:count 0
attr interpolationmode none
attr source packetDropReasonIsInterfaceDown(packetDropped)
attr title "packet drop: interface down, count"
scalar TestScenario2.switchA.eth[0].mac packetDropInterfaceDown:sum(packetBytes) 0
attr interpolationmode none
attr source packetDropReasonIsInterfaceDown(packetDropped)
attr title "packet drop: interface down, sum(packetBytes)"
scalar TestScenario2.switchA.eth[0].mac packetDropNotAddressedToUs:count 0
attr interpolationmode none
attr source packetDropReasonIsNotAddressedToUs(packetDropped)
attr title "packet drop: not addressed to us, count"
scalar TestScenario2.switchA.eth[0].mac packetDropNotAddressedToUs:sum(packetBytes) 0
attr interpolationmode none
attr source packetDropReasonIsNotAddressedToUs(packetDropped)
attr title "packet drop: not addressed to us, sum(packetBytes)"
scalar TestScenario2.switchA.eth[0].queuing.queues[0] dropPk:count 0
attr interpolationmode none
attr source dropPkByQueue
attr title "dropped packets, count"
scalar TestScenario2.switchA.eth[0].queuing.queues[0] dropPk:sum(packetBytes) 0
attr interpolationmode none
attr source dropPkByQueue
attr title "dropped packets, sum(packetBytes)"
scalar TestScenario2.switchA.eth[0].queuing.queues[0] rcvdPk:count 0
attr interpolationmode none
attr title "received packets, count"
scalar TestScenario2.switchA.eth[0].queuing.queues[0] rcvdPk:sum(packetBytes) 0
attr interpolationmode none
attr title "received packets, sum(packetBytes)"
statistic TestScenario2.switchA.eth[0].queuing.queues[0] queueingTime:histogram
field count 0
field mean -nan
field stddev -nan
field min -nan
field max -nan
field sum 0
field sqrsum 0
attr interpolationmode none
attr title "queueing time, histogram"
bin	-inf	0
bin	0	0
bin	1	0
scalar TestScenario2.switchA.eth[0].queuing.queues[0] queueLength:max 0
attr interpolationmode sample-hold
attr title "queue length, max"
scalar TestScenario2.switchA.eth[0].queuing.queues[0] queueLength:timeavg 0
attr interpolationmode sample-hold
attr title "queue length, timeavg"
scalar TestScenario2.switchA.eth[0].queuing.queues[1] dropPk:count 0
attr interpolationmode none
attr source dropPkByQueue
attr title "dropped packets, count"
scalar TestScenario2.switchA.eth[0].queuing.queues[1] dropPk:sum(packetBytes) 0
attr interpolationmode none
attr source dropPkByQueue
attr title "dropped packets, sum(packetBytes)"
scalar TestScenario2.switchA.eth[0].queuing.queues[1] rcvdPk:count 0
attr interpolationmode none
attr title "received packets, count"
scalar TestScenario2.switchA.eth[0].queuing.queues[1] rcvdPk:sum(packetBytes) 0
attr interpolationmode none
attr title "received packets, sum(packetBytes)"
statistic TestScenario2.switchA.eth[0].queuing.queues[1] queueingTime:histogram
field count 0
field mean -nan
field stddev -nan
field min -nan
field max -nan
field sum 0
field sqrsum 0
attr interpolationmode none
attr title "queueing time, histogram"
bin	-inf	0
bin	0	0
bin	1	0
scalar TestScenario2.switchA.eth[0].queuing.queues[1] queueLength:max 0
attr interpolationmode sample-hold
attr title "queue length, max"
scalar TestScenario2.switchA.eth[0].queuing.queues[1] queueLength:timeavg 0
attr interpolationmode sample-hold
attr title "queue length, timeavg"
scalar TestScenario2.switchA.eth[0].queuing.queues[2] dropPk:count 0
attr interpolationmode none
attr source dropPkByQueue
attr title "dropped packets, count"
scalar TestScenario2.switchA.eth[0].queuing.queues[2] dropPk:sum(packetBytes) 0
attr interpolationmode none
attr source dropPkByQueue
attr title "dropped packets, sum(packetBytes)"
scalar TestScenario2.switchA.eth[0].queuing.queues[2] rcvdPk:count 0
attr interpolationmode none
attr title "received packets, count"
scalar TestScenario2.switchA.eth[0].queuing.queues[2] rcvdPk:sum(packetBytes) 0
attr interpolationmode none
attr title "received packets, sum(packetBytes)"
statistic TestScenario2.switchA.eth[0].queuing.queues[2] queueingTime:histogram
field count 0
field mean -nan
field stddev -nan
field min -nan
field max -nan
field sum 0
field sqrsum 0
attr interpolationmode none
attr title "queueing time, histogram"
bin	-inf	0
bin	0	0
bin	1	0
scalar TestScenario2.switchA.eth[0].queuing.queues[2] queueLength:max 0
attr interpolationmode sample-hold
attr title "queue length, max"
scalar TestScenario2.switchA.eth[0].queuing.queues[2] queueLength:timeavg 0
attr interpolationmode sample-hold
attr title "queue length, timeavg"
scalar TestScenario2.switchA.eth[0].queuing.queues[3] dropPk:count 0
attr interpolationmode none
attr source dropPkByQueue
attr title "dropped packets, count"
scalar TestScenario2.switchA.eth[0].queuing.queues[3] dropPk:sum(packetBytes) 0
attr interpolationmode none
attr source dropPkByQueue
attr title "dropped packets, sum(packetBytes)"
scalar TestScenario2.switchA.eth[0].queuing.queues[3] rcvdPk:count 0
attr interpolationmode none
attr title "received packets, count"
scalar TestScenario2.switchA.eth[0].queuing.queues[3] rcvdPk:sum(packetBytes) 0
attr interpolationmode none
attr title "received packets, sum(packetBytes)"
statistic TestScenario2.switchA.eth[0].queuing.queues[3] queueingTime:histogram
field count 0
field mean -nan
field stddev -nan
field min -nan
field max -nan
field sum 0
field sqrsum 0
attr interpolationmode none
attr title "queueing time, histogram"
bin	-inf	0
bin	0	0
bin	1	0
scalar TestScenario2.switchA.eth[0].queuing.queues[3] queueLength:max 0
attr interpolationmode sample-hold
attr title "queue length, max"
scalar TestScenario2.switchA.eth[0].queuing.queues[3] queueLength:timeavg 0
attr interpolationmode sample-hold
attr title "queue length, timeavg"
scalar TestScenario2.switchA.eth[0].queuing.queues[4] dropPk:count 0
attr interpolationmode none
attr source dropPkByQueue
attr title "dropped packets, count"
scalar TestScenario2.switchA.eth[0].queuing.queues[4] dropPk:sum(packetBytes) 0
attr interpolationmode none
attr source dropPkByQueue
attr title "dropped packets, sum(packetBytes)"
scalar TestScenario2.switchA.eth[0].queuing.queues[4] rcvdPk:count 0
attr interpolationmode none
attr title "received packets, count"
scalar TestScenario2.switchA.eth[0].queuing.queues[4] rcvdPk:sum(packetBytes) 0
attr interpolationmode none
attr title "received packets, sum(packetBytes)"
statistic TestScenario2.switchA.eth[0].queuing.queues[4] queueingTime:histogram
field count 0
field mean -nan
field stddev -nan
field min -nan
field max -nan
field sum 0
field sqrsum 0
attr interpolationmode none
attr title "queueing time, histogram"
bin	-inf	0
bin	0	0
bin	1	0
scalar TestScenario2.switchA.eth[0].queuing.queues[4] queueLength:max 0
attr interpolationmode sample-hold
attr title "queue length, max"
scalar TestScenario2.switchA.eth[0].queuing.queues[4] queueLength:timeavg 0
attr interpolationmode sample-hold
attr title "queue length, timeavg"
scalar TestScenario2.switchA.eth[0].queuing.queues[5] dropPk:count 0
attr interpolationmode none
attr source dropPkByQueue
attr title "dropped packets, count"
scalar TestScenario2.switchA.eth[0].queuing.queues[5] dropPk:sum(packetBytes) 0
attr interpolationmode none
attr source dropPkByQueue
attr title "dropped packets, sum(packetBytes)"
scalar TestScenario2.switchA.eth[0].queuing.queues[5] rcvdPk:count 0
attr interpolationmode none
attr title "received packets, count"
scalar TestScenario2.switchA.eth[0].queuing.queues[5] rcvdPk:sum(packetBytes) 0
attr interpolationmode none
attr title "received packets, sum(packetBytes)"
statistic TestScenario2.switchA.eth[0].queuing.queues[5] queueingTime:histogram
field count 0
field mean -nan
field stddev -nan
field min -nan
field max -nan
field sum 0
field sqrsum 0
attr interpolationmode none
attr title "queueing time, histogram"
bin	-inf	0
bin	0	0
bin	1	0
scalar TestScenario2.switchA.eth[0].queuing.queues[5] queueLength:max 0
attr interpolationmode sample-hold
attr title "queue length, max"
scalar TestScenario2.switchA.eth[0].queuing.queues[5] queueLength:timeavg 0
attr interpolationmode sample-hold
attr title "queue length, timeavg"
scalar TestScenario2.switchA.eth[0].queuing.queues[6] dropPk:count 0
attr interpolationmode none
attr source dropPkByQueue
attr title "dropped packets, count"
scalar TestScenario2.switchA.eth[0].queuing.queues[6] dropPk:sum(packetBytes) 0
attr interpolationmode none
attr source dropPkByQueue
attr title "dropped packets, sum(packetBytes)"
scalar TestScenario2.switchA.eth[0].queuing.queues[6] rcvdPk:count 0
attr interpolationmode none
attr title "received packets, count"
scalar TestScenario2.switchA.eth[0].queuing.queues[6] rcvdPk:sum(packetBytes) 0
attr interpolationmode none
attr title "received packets, sum(packetBytes)"
statistic TestScenario2.switchA.eth[0].queuing.queues[6] queueingTime:histogram
field count 0
field mean -nan
field stddev -nan
field min -nan
field max -nan
field sum 0
field sqrsum 0
attr interpolationmode none
attr title "queueing time, histogram"
bin	-inf	0
bin	0	0
bin	1	0
scalar TestScenario2.switchA.eth[0].queuing.queues[6] queueLength:max 0
attr interpolationmode sample-hold
attr title "queue length, max"
scalar TestScenario2.switchA.eth[0].queuing.queues[6] queueLength:timeavg 0
attr interpolationmode sample-hold
attr title "queue length, timeavg"
scalar TestScenario2.switchA.eth[0].queuing.queues[7] dropPk:count 0
attr interpolationmode none
attr source dropPkByQueue
attr title "dropped packets, count"
scalar TestScenario2.switchA.eth[0].queuing.queues[7] dropPk:sum(packetBytes) 0
attr interpolationmode none
attr source dropPkByQueue
attr title "dropped packets, sum(packetBytes)"
scalar TestScenario2.switchA.eth[0].queuing.queues[7] rcvdPk:count 0
attr interpolationmode none
attr title "received packets, count"
scalar TestScenario2.switchA.eth[0].queuing.queues[7] rcvdPk:sum(packetBytes) 0
attr interpolationmode none
attr title "received packets, sum(packetBytes)"
statistic TestScenario2.switchA.eth[0].queuing.queues[7] queueingTime:histogram
field count 0
field mean -nan
field stddev -nan
field min -nan
field max -nan
field sum 0
field sqrsum 0
attr interpolationmode none
attr title "queueing time, histogram"
bin	-inf	0
bin	0	0
bin	1	0
scalar TestScenario2.switchA.eth[0].queuing.queues[7] queueLength:max 0
attr interpolationmode sample-hold
attr title "queue length, max"
scalar TestScenario2.switchA.eth[0].queuing.queues[7] queueLength:timeavg 0
attr interpolationmode sample-hold
attr title "queue length, timeavg"
scalar TestScenario2.switchA.eth[0].vlanEncapE decapPk:count 1
attr interpolationmode none
attr source decapPk
attr title "packets decapsulated, count"
scalar TestScenario2.switchA.eth[0].vlanEncapE decapPk:sum(packetBytes) 354
attr interpolationmode none
attr source decapPk
attr title "packets decapsulated, sum(packetBytes)"
scalar TestScenario2.switchA.eth[0].vlanEncapE encapPk:count 0
attr interpolationmode none
attr source encapPk
attr title "packets encapsulated, count"
scalar TestScenario2.switchA.eth[0].vlanEncapE encapPk:sum(packetBytes) 0
attr interpolationmode none
attr source encapPk
attr title "packets encapsulated, sum(packetBytes)"
scalar TestScenario2.switchA.eth[0].etherEncapE pauseSent:count 0
attr title "pause sent, count"
scalar TestScenario2.switchA.eth[0].etherEncapE pauseSent:sum 0
attr title "pause sent, sum"
scalar TestScenario2.switchA.eth[0].etherEncapE decapPk:count 1
attr interpolationmode none
attr source decapPk
attr title "packets decapsulated, count"
scalar TestScenario2.switchA.eth[0].etherEncapE decapPk:sum(packetBytes) 358
attr interpolationmode none
attr source decapPk
attr title "packets decapsulated, sum(packetBytes)"
scalar TestScenario2.switchA.eth[0].etherEncapE encapPk:count 0
attr interpolationmode none
attr source encapPk
attr title "packets encapsulated, count"
scalar TestScenario2.switchA.eth[0].etherEncapE encapPk:sum(packetBytes) 0
attr interpolationmode none
attr source encapPk
attr title "packets encapsulated, sum(packetBytes)"
scalar TestScenario2.switchA.eth[0].vlanEncapP decapPk:count 0
attr interpolationmode none
attr source decapPk
attr title "packets decapsulated, count"
scalar TestScenario2.switchA.eth[0].vlanEncapP decapPk:sum(packetBytes) 0
attr interpolationmode none
attr source decapPk
attr title "packets decapsulated, sum(packetBytes)"
scalar TestScenario2.switchA.eth[0].vlanEncapP encapPk:count 0
attr interpolationmode none
attr source encapPk
attr title "packets encapsulated, count"
scalar TestScenario2.switchA.eth[0].vlanEncapP encapPk:sum(packetBytes) 0
attr interpolationmode none
attr source encapPk
attr title "packets encapsulated, sum(packetBytes)"
scalar TestScenario2.switchA.eth[0].etherEncapP pauseSent:count 0
attr title "pause sent, count"
scalar TestScenario2.switchA.eth[0].etherEncapP pauseSent:sum 0
attr title "pause sent, sum"
scalar TestScenario2.switchA.eth[0].etherEncapP decapPk:count 0
attr interpolationmode none
attr source decapPk
attr title "packets decapsulated, count"
scalar TestScenario2.switchA.eth[0].etherEncapP decapPk:sum(packetBytes) 0
attr interpolationmode none
attr source decapPk
attr title "packets decapsulated, sum(packetBytes)"
scalar TestScenario2.switchA.eth[0].etherEncapP encapPk:count 0
attr interpolationmode none
attr source encapPk
attr title "packets encapsulated, count"
scalar TestScenario2.switchA.eth[0].etherEncapP encapPk:sum(packetBytes) 0
attr interpolationmode none
attr source encapPk
attr title "packets encapsulated, sum(packetBytes)"
scalar TestScenario2.switchA.eth[1].mac "simulated time" 6.1552279e-05
scalar TestScenario2.switchA.eth[1].mac full-duplex 1
scalar TestScenario2.switchA.eth[1].mac "frames/sec sent" 0
scalar TestScenario2.switchA.eth[1].mac "frames/sec rcvd" 81231.760728145
scalar TestScenario2.switchA.eth[1].mac "bits/sec sent" 0
scalar TestScenario2.switchA.eth[1].mac "bits/sec rcvd" 986478502.28259
scalar TestScenario2.switchA.eth[1].mac "rx channel idle (%)" 100
scalar TestScenario2.switchA.eth[1].mac "rx channel utilization (%)" 0
statistic TestScenario2.switchA.eth[1].mac pMacDelay:histogram
field count 0
field mean -nan
field stddev -nan
field min -nan
field max -nan
field sum 0
field sqrsum 0
attr interpolationmode none
attr title "pMacDelay, histogram"
bin	-inf	0
bin	0	0
bin	1	0
statistic TestScenario2.switchA.eth[1].mac eMacDelay:histogram
field count 0
field mean -nan
field stddev -nan
field min -nan
field max -nan
field sum 0
field sqrsum 0
attr interpolationmode none
attr title "eMacDelay, histogram"
bin	-inf	0
bin	0	0
bin	1	0
scalar TestScenario2.switchA.eth[1].mac expressFramesEnqueued:count 0
attr interpolationmode none
attr source expressFrameEnqueuedWhileSendingPreemptableSignal
attr title "express frames enqueued, count"
scalar TestScenario2.switchA.eth[1].mac mPacketsFull:count 0
attr interpolationmode none
attr source transmittedPreemptableFullSignal
attr title "mpackets full, count"
scalar TestScenario2.switchA.eth[1].mac mPacketsFinal:count 0
attr interpolationmode none
attr source transmittedPreemptableFinalSignal
attr title "mPackets final, count"
scalar TestScenario2.switchA.eth[1].mac mPacketsNonFinal:count 0
attr interpolationmode none
attr source transmittedPreemptableNonFinalSignal
attr title "mPackets non-final, count"
scalar TestScenario2.switchA.eth[1].mac mPackets:count 0
attr interpolationmode none
attr source transmittedPreemptableFramePartSignal
attr title "mPackets, count"
scalar TestScenario2.switchA.eth[1].mac preemptableFrames:count 0
attr interpolationmode none
attr source transmittedPreemptableFrameSignal
attr title "preemptableFrames, count"
scalar TestScenario2.switchA.eth[1].mac expressFrames:count 0
attr interpolationmode none
attr source transmittedExpressFrameSignal
attr title "expressFrames, count"
scalar TestScenario2.switchA.eth[1].mac preemptions:count 0
attr interpolationmode none
attr source preemptCurrentFrameSignal
attr title "preemptions, count"
scalar TestScenario2.switchA.eth[1].mac rxPausePkUnits:count 0
attr interpolationmode none
attr title "pause units received, count"
scalar TestScenario2.switchA.eth[1].mac rxPausePkUnits:sum 0
attr interpolationmode none
attr title "pause units received, sum"
scalar TestScenario2.switchA.eth[1].mac txPausePkUnits:count 0
attr interpolationmode none
attr title "pause units sent, count"
scalar TestScenario2.switchA.eth[1].mac txPausePkUnits:sum 0
attr interpolationmode none
attr title "pause units sent, sum"
scalar TestScenario2.switchA.eth[1].mac rxPkOk:count 5
attr interpolationmode none
attr source rxPkOk
attr title "packets received OK, count"
scalar TestScenario2.switchA.eth[1].mac rxPkOk:sum(packetBytes) 7590
attr interpolationmode none
attr source rxPkOk
attr title "packets received OK, sum(packetBytes)"
scalar TestScenario2.switchA.eth[1].mac txPk:count 0
attr interpolationmode none
attr source packetSentToLower
attr title "packets transmitted, count"
scalar TestScenario2.switchA.eth[1].mac txPk:sum(packetBytes) 0
attr interpolationmode none
attr source packetSentToLower
attr title "packets transmitted, sum(packetBytes)"
scalar TestScenario2.switchA.eth[1].mac packetReceivedFromUpper:count 0
attr interpolationmode none
attr source packetReceivedFromUpper
attr title "packet bytes from higher layer, count"
scalar TestScenario2.switchA.eth[1].mac packetReceivedFromUpper:sum(packetBytes) 0
attr interpolationmode none
attr source packetReceivedFromUpper
attr title "packet bytes from higher layer, sum(packetBytes)"
scalar TestScenario2.switchA.eth[1].mac passedUpPk:count 5
attr interpolationmode none
attr source packetSentToUpper
attr title "packets passed to higher layer, count"
scalar TestScenario2.switchA.eth[1].mac passedUpPk:sum(packetBytes) 7590
attr interpolationmode none
attr source packetSentToUpper
attr title "packets passed to higher layer, sum(packetBytes)"
scalar TestScenario2.switchA.eth[1].mac packetDropIncorrectlyReceived:count 0
attr interpolationmode none
attr source packetDropReasonIsIncorrectlyReceived(packetDropped)
attr title "packet drop: incorrectly received, count"
scalar TestScenario2.switchA.eth[1].mac packetDropIncorrectlyReceived:sum(packetBytes) 0
attr interpolationmode none
attr source packetDropReasonIsIncorrectlyReceived(packetDropped)
attr title "packet drop: incorrectly received, sum(packetBytes)"
scalar TestScenario2.switchA.eth[1].mac packetDropInterfaceDown:count 0
attr interpolationmode none
attr source packetDropReasonIsInterfaceDown(packetDropped)
attr title "packet drop: interface down, count"
scalar TestScenario2.switchA.eth[1].mac packetDropInterfaceDown:sum(packetBytes) 0
attr interpolationmode none
attr source packetDropReasonIsInterfaceDown(packetDropped)
attr title "packet drop: interface down, sum(packetBytes)"
scalar TestScenario2.switchA.eth[1].mac packetDropNotAddressedToUs:count 0
attr interpolationmode none
attr source packetDropReasonIsNotAddressedToUs(packetDropped)
attr title "packet drop: not addressed to us, count"
scalar TestScenario2.switchA.eth[1].mac packetDropNotAddressedToUs:sum(packetBytes) 0
attr interpolationmode none
attr source packetDropReasonIsNotAddressedToUs(packetDropped)
attr title "packet drop: not addressed to us, sum(packetBytes)"
scalar TestScenario2.switchA.eth[1].queuing.queues[0] dropPk:count 0
attr interpolationmode none
attr source dropPkByQueue
attr title "dropped packets, count"
scalar TestScenario2.switchA.eth[1].queuing.queues[0] dropPk:sum(packetBytes) 0
attr interpolationmode none
attr source dropPkByQueue
attr title "dropped packets, sum(packetBytes)"
scalar TestScenario2.switchA.eth[1].queuing.queues[0] rcvdPk:count 0
attr interpolationmode none
attr title "received packets, count"
scalar TestScenario2.switchA.eth[1].queuing.queues[0] rcvdPk:sum(packetBytes) 0
attr interpolationmode none
attr title "received packets, sum(packetBytes)"
statistic TestScenario2.switchA.eth[1].queuing.queues[0] queueingTime:histogram
field count 0
field mean -nan
field stddev -nan
field min -nan
field max -nan
field sum 0
field sqrsum 0
attr interpolationmode none
attr title "queueing time, histogram"
bin	-inf	0
bin	0	0
bin	1	0
scalar TestScenario2.switchA.eth[1].queuing.queues[0] queueLength:max 0
attr interpolationmode sample-hold
attr title "queue length, max"
scalar TestScenario2.switchA.eth[1].queuing.queues[0] queueLength:timeavg 0
attr interpolationmode sample-hold
attr title "queue length, timeavg"
scalar TestScenario2.switchA.eth[1].queuing.queues[1] dropPk:count 0
attr interpolationmode none
attr source dropPkByQueue
attr title "dropped packets, count"
scalar TestScenario2.switchA.eth[1].queuing.queues[1] dropPk:sum(packetBytes) 0
attr interpolationmode none
attr source dropPkByQueue
attr title "dropped packets, sum(packetBytes)"
scalar TestScenario2.switchA.eth[1].queuing.queues[1] rcvdPk:count 0
attr interpolationmode none
attr title "received packets, count"
scalar TestScenario2.switchA.eth[1].queuing.queues[1] rcvdPk:sum(packetBytes) 0
attr interpolationmode none
attr title "received packets, sum(packetBytes)"
statistic TestScenario2.switchA.eth[1].queuing.queues[1] queueingTime:histogram
field count 0
field mean -nan
field stddev -nan
field min -nan
field max -nan
field sum 0
field sqrsum 0
attr interpolationmode none
attr title "queueing time, histogram"
bin	-inf	0
bin	0	0
bin	1	0
scalar TestScenario2.switchA.eth[1].queuing.queues[1] queueLength:max 0
attr interpolationmode sample-hold
attr title "queue length, max"
scalar TestScenario2.switchA.eth[1].queuing.queues[1] queueLength:timeavg 0
attr interpolationmode sample-hold
attr title "queue length, timeavg"
scalar TestScenario2.switchA.eth[1].queuing.queues[2] dropPk:count 0
attr interpolationmode none
attr source dropPkByQueue
attr title "dropped packets, count"
scalar TestScenario2.switchA.eth[1].queuing.queues[2] dropPk:sum(packetBytes) 0
attr interpolationmode none
attr source dropPkByQueue
attr title "dropped packets, sum(packetBytes)"
scalar TestScenario2.switchA.eth[1].queuing.queues[2] rcvdPk:count 0
attr interpolationmode none
attr title "received packets, count"
scalar TestScenario2.switchA.eth[1].queuing.queues[2] rcvdPk:sum(packetBytes) 0
attr interpolationmode none
attr title "received packets, sum(packetBytes)"
statistic TestScenario2.switchA.eth[1].queuing.queues[2] queueingTime:histogram
field count 0
field mean -nan
field stddev -nan
field min -nan
field max -nan
field sum 0
field sqrsum 0
attr interpolationmode none
attr title "queueing time, histogram"
bin	-inf	0
bin	0	0
bin	1	0
scalar TestScenario2.switchA.eth[1].queuing.queues[2] queueLength:max 0
attr interpolationmode sample-hold
attr title "queue length, max"
scalar TestScenario2.switchA.eth[1].queuing.queues[2] queueLength:timeavg 0
attr interpolationmode sample-hold
attr title "queue length, timeavg"
scalar TestScenario2.switchA.eth[1].queuing.queues[3] dropPk:count 0
attr interpolationmode none
attr source dropPkByQueue
attr title "dropped packets, count"
scalar TestScenario2.switchA.eth[1].queuing.queues[3] dropPk:sum(packetBytes) 0
attr interpolationmode none
attr source dropPkByQueue
attr title "dropped packets, sum(packetBytes)"
scalar TestScenario2.switchA.eth[1].queuing.queues[3] rcvdPk:count 0
attr interpolationmode none
attr title "received packets, count"
scalar TestScenario2.switchA.eth[1].queuing.queues[3] rcvdPk:sum(packetBytes) 0
attr interpolationmode none
attr title "received packets, sum(packetBytes)"
statistic TestScenario2.switchA.eth[1].queuing.queues[3] queueingTime:histogram
field count 0
field mean -nan
field stddev -nan
field min -nan
field max -nan
field sum 0
field sqrsum 0
attr interpolationmode none
attr title "queueing time, histogram"
bin	-inf	0
bin	0	0
bin	1	0
scalar TestScenario2.switchA.eth[1].queuing.queues[3] queueLength:max 0
attr interpolationmode sample-hold
attr title "queue length, max"
scalar TestScenario2.switchA.eth[1].queuing.queues[3] queueLength:timeavg 0
attr interpolationmode sample-hold
attr title "queue length, timeavg"
scalar TestScenario2.switchA.eth[1].queuing.queues[4] dropPk:count 0
attr interpolationmode none
attr source dropPkByQueue
attr title "dropped packets, count"
scalar TestScenario2.switchA.eth[1].queuing.queues[4] dropPk:sum(packetBytes) 0
attr interpolationmode none
attr source dropPkByQueue
attr title "dropped packets, sum(packetBytes)"
scalar TestScenario2.switchA.eth[1].queuing.queues[4] rcvdPk:count 0
attr interpolationmode none
attr title "received packets, count"
scalar TestScenario2.switchA.eth[1].queuing.queues[4] rcvdPk:sum(packetBytes) 0
attr interpolationmode none
attr title "received packets, sum(packetBytes)"
statistic TestScenario2.switchA.eth[1].queuing.queues[4] queueingTime:histogram
field count 0
field mean -nan
field stddev -nan
field min -nan
field max -nan
field sum 0
field sqrsum 0
attr interpolationmode none
attr title "queueing time, histogram"
bin	-inf	0
bin	0	0
bin	1	0
scalar TestScenario2.switchA.eth[1].queuing.queues[4] queueLength:max 0
attr interpolationmode sample-hold
attr title "queue length, max"
scalar TestScenario2.switchA.eth[1].queuing.queues[4] queueLength:timeavg 0
attr interpolationmode sample-hold
attr title "queue length, timeavg"
scalar TestScenario2.switchA.eth[1].queuing.queues[5] dropPk:count 0
attr interpolationmode none
attr source dropPkByQueue
attr title "dropped packets, count"
scalar TestScenario2.switchA.eth[1].queuing.queues[5] dropPk:sum(packetBytes) 0
attr interpolationmode none
attr source dropPkByQueue
attr title "dropped packets, sum(packetBytes)"
scalar TestScenario2.switchA.eth[1].queuing.queues[5] rcvdPk:count 0
attr interpolationmode none
attr title "received packets, count"
scalar TestScenario2.switchA.eth[1].queuing.queues[5] rcvdPk:sum(packetBytes) 0
attr interpolationmode none
attr title "received packets, sum(packetBytes)"
statistic TestScenario2.switchA.eth[1].queuing.queues[5] queueingTime:histogram
field count 0
field mean -nan
field stddev -nan
field min -nan
field max -nan
field sum 0
field sqrsum 0
attr interpolationmode none
attr title "queueing time, histogram"
bin	-inf	0
bin	0	0
bin	1	0
scalar TestScenario2.switchA.eth[1].queuing.queues[5] queueLength:max 0
attr interpolationmode sample-hold
attr title "queue length, max"
scalar TestScenario2.switchA.eth[1].queuing.queues[5] queueLength:timeavg 0
attr interpolationmode sample-hold
attr title "queue length, timeavg"
scalar TestScenario2.switchA.eth[1].queuing.queues[6] dropPk:count 0
attr interpolationmode none
attr source dropPkByQueue
attr title "dropped packets, count"
scalar TestScenario2.switchA.eth[1].queuing.queues[6] dropPk:sum(packetBytes) 0
attr interpolationmode none
attr source dropPkByQueue
attr title "dropped packets, sum(packetBytes)"
scalar TestScenario2.switchA.eth[1].queuing.queues[6] rcvdPk:count 0
attr interpolationmode none
attr title "received packets, count"
scalar TestScenario2.switchA.eth[1].queuing.queues[6] rcvdPk:sum(packetBytes) 0
attr interpolationmode none
attr title "received packets, sum(packetBytes)"
statistic TestScenario2.switchA.eth[1].queuing.queues[6] queueingTime:histogram
field count 0
field mean -nan
field stddev -nan
field min -nan
field max -nan
field sum 0
field sqrsum 0
attr interpolationmode none
attr title "queueing time, histogram"
bin	-inf	0
bin	0	0
bin	1	0
scalar TestScenario2.switchA.eth[1].queuing.queues[6] queueLength:max 0
attr interpolationmode sample-hold
attr title "queue length, max"
scalar TestScenario2.switchA.eth[1].queuing.queues[6] queueLength:timeavg 0
attr interpolationmode sample-hold
attr title "queue length, timeavg"
scalar TestScenario2.switchA.eth[1].queuing.queues[7] dropPk:count 0
attr interpolationmode none
attr source dropPkByQueue
attr title "dropped packets, count"
scalar TestScenario2.switchA.eth[1].queuing.queues[7] dropPk:sum(packetBytes) 0
attr interpolationmode none
attr source dropPkByQueue
attr title "dropped packets, sum(packetBytes)"
scalar TestScenario2.switchA.eth[1].queuing.queues[7] rcvdPk:count 0
attr interpolationmode none
attr title "received packets, count"
scalar TestScenario2.switchA.eth[1].queuing.queues[7] rcvdPk:sum(packetBytes) 0
attr interpolationmode none
attr title "received packets, sum(packetBytes)"
statistic TestScenario2.switchA.eth[1].queuing.queues[7] queueingTime:histogram
field count 0
field mean -nan
field stddev -nan
field min -nan
field max -nan
field sum 0
field sqrsum 0
attr interpolationmode none
attr title "queueing time, histogram"
bin	-inf	0
bin	0	0
bin	1	0
scalar TestScenario2.switchA.eth[1].queuing.queues[7] queueLength:max 0
attr interpolationmode sample-hold
attr title "queue length, max"
scalar TestScenario2.switchA.eth[1].queuing.queues[7] queueLength:timeavg 0
attr interpolationmode sample-hold
attr title "queue length, timeavg"
scalar TestScenario2.switchA.eth[1].vlanEncapE decapPk:count 5
attr interpolationmode none
attr source decapPk
attr title "packets decapsulated, count"
scalar TestScenario2.switchA.eth[1].vlanEncapE decapPk:sum(packetBytes) 7480
attr interpolationmode none
attr source decapPk
attr title "packets decapsulated, sum(packetBytes)"
scalar TestScenario2.switchA.eth[1].vlanEncapE encapPk:count 0
attr interpolationmode none
attr source encapPk
attr title "packets encapsulated, count"
scalar TestScenario2.switchA.eth[1].vlanEncapE encapPk:sum(packetBytes) 0
attr interpolationmode none
attr source encapPk
attr title "packets encapsulated, sum(packetBytes)"
scalar TestScenario2.switchA.eth[1].etherEncapE pauseSent:count 0
attr title "pause sent, count"
scalar TestScenario2.switchA.eth[1].etherEncapE pauseSent:sum 0
attr title "pause sent, sum"
scalar TestScenario2.switchA.eth[1].etherEncapE decapPk:count 5
attr interpolationmode none
attr source decapPk
attr title "packets decapsulated, count"
scalar TestScenario2.switchA.eth[1].etherEncapE decapPk:sum(packetBytes) 7500
attr interpolationmode none
attr source decapPk
attr title "packets decapsulated, sum(packetBytes)"
scalar TestScenario2.switchA.eth[1].etherEncapE encapPk:count 0
attr interpolationmode none
attr source encapPk
attr title "packets encapsulated, count"
scalar TestScenario2.switchA.eth[1].etherEncapE encapPk:sum(packetBytes) 0
attr interpolationmode none
attr source encapPk
attr title "packets encapsulated, sum(packetBytes)"
scalar TestScenario2.switchA.eth[1].vlanEncapP decapPk:count 0
attr interpolationmode none
attr source decapPk
attr title "packets decapsulated, count"
scalar TestScenario2.switchA.eth[1].vlanEncapP decapPk:sum(packetBytes) 0
attr interpolationmode none
attr source decapPk
attr title "packets decapsulated, sum(packetBytes)"
scalar TestScenario2.switchA.eth[1].vlanEncapP encapPk:count 0
attr interpolationmode none
attr source encapPk
attr title "packets encapsulated, count"
scalar TestScenario2.switchA.eth[1].vlanEncapP encapPk:sum(packetBytes) 0
attr interpolationmode none
attr source encapPk
attr title "packets encapsulated, sum(packetBytes)"
scalar TestScenario2.switchA.eth[1].etherEncapP pauseSent:count 0
attr title "pause sent, count"
scalar TestScenario2.switchA.eth[1].etherEncapP pauseSent:sum 0
attr title "pause sent, sum"
scalar TestScenario2.switchA.eth[1].etherEncapP decapPk:count 0
attr interpolationmode none
attr source decapPk
attr title "packets decapsulated, count"
scalar TestScenario2.switchA.eth[1].etherEncapP decapPk:sum(packetBytes) 0
attr interpolationmode none
attr source decapPk
attr title "packets decapsulated, sum(packetBytes)"
scalar TestScenario2.switchA.eth[1].etherEncapP encapPk:count 0
attr interpolationmode none
attr source encapPk
attr title "packets encapsulated, count"
scalar TestScenario2.switchA.eth[1].etherEncapP encapPk:sum(packetBytes) 0
attr interpolationmode none
attr source encapPk
attr title "packets encapsulated, sum(packetBytes)"
scalar TestScenario2.switchA.eth[2].mac "simulated time" 6.1552279e-05
scalar TestScenario2.switchA.eth[2].mac full-duplex 1
scalar TestScenario2.switchA.eth[2].mac "frames/sec sent" 0
scalar TestScenario2.switchA.eth[2].mac "frames/sec rcvd" 81231.760728145
scalar TestScenario2.switchA.eth[2].mac "bits/sec sent" 0
scalar TestScenario2.switchA.eth[2].mac "bits/sec rcvd" 986478502.28259
scalar TestScenario2.switchA.eth[2].mac "rx channel idle (%)" 100
scalar TestScenario2.switchA.eth[2].mac "rx channel utilization (%)" 0
statistic TestScenario2.switchA.eth[2].mac pMacDelay:histogram
field count 0
field mean -nan
field stddev -nan
field min -nan
field max -nan
field sum 0
field sqrsum 0
attr interpolationmode none
attr title "pMacDelay, histogram"
bin	-inf	0
bin	0	0
bin	1	0
statistic TestScenario2.switchA.eth[2].mac eMacDelay:histogram
field count 0
field mean -nan
field stddev -nan
field min -nan
field max -nan
field sum 0
field sqrsum 0
attr interpolationmode none
attr title "eMacDelay, histogram"
bin	-inf	0
bin	0	0
bin	1	0
scalar TestScenario2.switchA.eth[2].mac expressFramesEnqueued:count 0
attr interpolationmode none
attr source expressFrameEnqueuedWhileSendingPreemptableSignal
attr title "express frames enqueued, count"
scalar TestScenario2.switchA.eth[2].mac mPacketsFull:count 0
attr interpolationmode none
attr source transmittedPreemptableFullSignal
attr title "mpackets full, count"
scalar TestScenario2.switchA.eth[2].mac mPacketsFinal:count 0
attr interpolationmode none
attr source transmittedPreemptableFinalSignal
attr title "mPackets final, count"
scalar TestScenario2.switchA.eth[2].mac mPacketsNonFinal:count 0
attr interpolationmode none
attr source transmittedPreemptableNonFinalSignal
attr title "mPackets non-final, count"
scalar TestScenario2.switchA.eth[2].mac mPackets:count 0
attr interpolationmode none
attr source transmittedPreemptableFramePartSignal
attr title "mPackets, count"
scalar TestScenario2.switchA.eth[2].mac preemptableFrames:count 0
attr interpolationmode none
attr source transmittedPreemptableFrameSignal
attr title "preemptableFrames, count"
scalar TestScenario2.switchA.eth[2].mac expressFrames:count 0
attr interpolationmode none
attr source transmittedExpressFrameSignal
attr title "expressFrames, count"
scalar TestScenario2.switchA.eth[2].mac preemptions:count 0
attr interpolationmode none
attr source preemptCurrentFrameSignal
attr title "preemptions, count"
scalar TestScenario2.switchA.eth[2].mac rxPausePkUnits:count 0
attr interpolationmode none
attr title "pause units received, count"
scalar TestScenario2.switchA.eth[2].mac rxPausePkUnits:sum 0
attr interpolationmode none
attr title "pause units received, sum"
scalar TestScenario2.switchA.eth[2].mac txPausePkUnits:count 0
attr interpolationmode none
attr title "pause units sent, count"
scalar TestScenario2.switchA.eth[2].mac txPausePkUnits:sum 0
attr interpolationmode none
attr title "pause units sent, sum"
scalar TestScenario2.switchA.eth[2].mac rxPkOk:count 5
attr interpolationmode none
attr source rxPkOk
attr title "packets received OK, count"
scalar TestScenario2.switchA.eth[2].mac rxPkOk:sum(packetBytes) 7590
attr interpolationmode none
attr source rxPkOk
attr title "packets received OK, sum(packetBytes)"
scalar TestScenario2.switchA.eth[2].mac txPk:count 0
attr interpolationmode none
attr source packetSentToLower
attr title "packets transmitted, count"
scalar TestScenario2.switchA.eth[2].mac txPk:sum(packetBytes) 0
attr interpolationmode none
attr source packetSentToLower
attr title "packets transmitted, sum(packetBytes)"
scalar TestScenario2.switchA.eth[2].mac packetReceivedFromUpper:count 0
attr interpolationmode none
attr source packetReceivedFromUpper
attr title "packet bytes from higher layer, count"
scalar TestScenario2.switchA.eth[2].mac packetReceivedFromUpper:sum(packetBytes) 0
attr interpolationmode none
attr source packetReceivedFromUpper
attr title "packet bytes from higher layer, sum(packetBytes)"
scalar TestScenario2.switchA.eth[2].mac passedUpPk:count 5
attr interpolationmode none
attr source packetSentToUpper
attr title "packets passed to higher layer, count"
scalar TestScenario2.switchA.eth[2].mac passedUpPk:sum(packetBytes) 7590
attr interpolationmode none
attr source packetSentToUpper
attr title "packets passed to higher layer, sum(packetBytes)"
scalar TestScenario2.switchA.eth[2].mac packetDropIncorrectlyReceived:count 0
attr interpolationmode none
attr source packetDropReasonIsIncorrectlyReceived(packetDropped)
attr title "packet drop: incorrectly received, count"
scalar TestScenario2.switchA.eth[2].mac packetDropIncorrectlyReceived:sum(packetBytes) 0
attr interpolationmode none
attr source packetDropReasonIsIncorrectlyReceived(packetDropped)
attr title "packet drop: incorrectly received, sum(packetBytes)"
scalar TestScenario2.switchA.eth[2].mac packetDropInterfaceDown:count 0
attr interpolationmode none
attr source packetDropReasonIsInterfaceDown(packetDropped)
attr title "packet drop: interface down, count"
scalar TestScenario2.switchA.eth[2].mac packetDropInterfaceDown:sum(packetBytes) 0
attr interpolationmode none
attr source packetDropReasonIsInterfaceDown(packetDropped)
attr title "packet drop: interface down, sum(packetBytes)"
scalar TestScenario2.switchA.eth[2].mac packetDropNotAddressedToUs:count 0
attr interpolationmode none
attr source packetDropReasonIsNotAddressedToUs(packetDropped)
attr title "packet drop: not addressed to us, count"
scalar TestScenario2.switchA.eth[2].mac packetDropNotAddressedToUs:sum(packetBytes) 0
attr interpolationmode none
attr source packetDropReasonIsNotAddressedToUs(packetDropped)
attr title "packet drop: not addressed to us, sum(packetBytes)"
scalar TestScenario2.switchA.eth[2].queuing.queues[0] dropPk:count 0
attr interpolationmode none
attr source dropPkByQueue
attr title "dropped packets, count"
scalar TestScenario2.switchA.eth[2].queuing.queues[0] dropPk:sum(packetBytes) 0
attr interpolationmode none
attr source dropPkByQueue
attr title "dropped packets, sum(packetBytes)"
scalar TestScenario2.switchA.eth[2].queuing.queues[0] rcvdPk:count 0
attr interpolationmode none
attr title "received packets, count"
scalar TestScenario2.switchA.eth[2].queuing.queues[0] rcvdPk:sum(packetBytes) 0
attr interpolationmode none
attr title "received packets, sum(packetBytes)"
statistic TestScenario2.switchA.eth[2].queuing.queues[0] queueingTime:histogram
field count 0
field mean -nan
field stddev -nan
field min -nan
field max -nan
field sum 0
field sqrsum 0
attr interpolationmode none
attr title "queueing time, histogram"
bin	-inf	0
bin	0	0
bin	1	0
scalar TestScenario2.switchA.eth[2].queuing.queues[0] queueLength:max 0
attr interpolationmode sample-hold
attr title "queue length, max"
scalar TestScenario2.switchA.eth[2].queuing.queues[0] queueLength:timeavg 0
attr interpolationmode sample-hold
attr title "queue length, timeavg"
scalar TestScenario2.switchA.eth[2].queuing.queues[1] dropPk:count 0
attr interpolationmode none
attr source dropPkByQueue
attr title "dropped packets, count"
scalar TestScenario2.switchA.eth[2].queuing.queues[1] dropPk:sum(packetBytes) 0
attr interpolationmode none
attr source dropPkByQueue
attr title "dropped packets, sum(packetBytes)"
scalar TestScenario2.switchA.eth[2].queuing.queues[1] rcvdPk:count 0
attr interpolationmode none
attr title "received packets, count"
scalar TestScenario2.switchA.eth[2].queuing.queues[1] rcvdPk:sum(packetBytes) 0
attr interpolationmode none
attr title "received packets, sum(packetBytes)"
statistic TestScenario2.switchA.eth[2].queuing.queues[1] queueingTime:histogram
field count 0
field mean -nan
field stddev -nan
field min -nan
field max -nan
field sum 0
field sqrsum 0
attr interpolationmode none
attr title "queueing time, histogram"
bin	-inf	0
bin	0	0
bin	1	0
scalar TestScenario2.switchA.eth[2].queuing.queues[1] queueLength:max 0
attr interpolationmode sample-hold
attr title "queue length, max"
scalar TestScenario2.switchA.eth[2].queuing.queues[1] queueLength:timeavg 0
attr interpolationmode sample-hold
attr title "queue length, timeavg"
scalar TestScenario2.switchA.eth[2].queuing.queues[2] dropPk:count 0
attr interpolationmode none
attr source dropPkByQueue
attr title "dropped packets, count"
scalar TestScenario2.switchA.eth[2].queuing.queues[2] dropPk:sum(packetBytes) 0
attr interpolationmode none
attr source dropPkByQueue
attr title "dropped packets, sum(packetBytes)"
scalar TestScenario2.switchA.eth[2].queuing.queues[2] rcvdPk:count 0
attr interpolationmode none
attr title "received packets, count"
scalar TestScenario2.switchA.eth[2].queuing.queues[2] rcvdPk:sum(packetBytes) 0
attr interpolationmode none
attr title "received packets, sum(packetBytes)"
statistic TestScenario2.switchA.eth[2].queuing.queues[2] queueingTime:histogram
field count 0
field mean -nan
field stddev -nan
field min -nan
field max -nan
field sum 0
field sqrsum 0
attr interpolationmode none
attr title "queueing time, histogram"
bin	-inf	0
bin	0	0
bin	1	0
scalar TestScenario2.switchA.eth[2].queuing.queues[2] queueLength:max 0
attr interpolationmode sample-hold
attr title "queue length, max"
scalar TestScenario2.switchA.eth[2].queuing.queues[2] queueLength:timeavg 0
attr interpolationmode sample-hold
attr title "queue length, timeavg"
scalar TestScenario2.switchA.eth[2].queuing.queues[3] dropPk:count 0
attr interpolationmode none
attr source dropPkByQueue
attr title "dropped packets, count"
scalar TestScenario2.switchA.eth[2].queuing.queues[3] dropPk:sum(packetBytes) 0
attr interpolationmode none
attr source dropPkByQueue
attr title "dropped packets, sum(packetBytes)"
scalar TestScenario2.switchA.eth[2].queuing.queues[3] rcvdPk:count 0
attr interpolationmode none
attr title "received packets, count"
scalar TestScenario2.switchA.eth[2].queuing.queues[3] rcvdPk:sum(packetBytes) 0
attr interpolationmode none
attr title "received packets, sum(packetBytes)"
statistic TestScenario2.switchA.eth[2].queuing.queues[3] queueingTime:histogram
field count 0
field mean -nan
field stddev -nan
field min -nan
field max -nan
field sum 0
field sqrsum 0
attr interpolationmode none
attr title "queueing time, histogram"
bin	-inf	0
bin	0	0
bin	1	0
scalar TestScenario2.switchA.eth[2].queuing.queues[3] queueLength:max 0
attr interpolationmode sample-hold
attr title "queue length, max"
scalar TestScenario2.switchA.eth[2].queuing.queues[3] queueLength:timeavg 0
attr interpolationmode sample-hold
attr title "queue length, timeavg"
scalar TestScenario2.switchA.eth[2].queuing.queues[4] dropPk:count 0
attr interpolationmode none
attr source dropPkByQueue
attr title "dropped packets, count"
scalar TestScenario2.switchA.eth[2].queuing.queues[4] dropPk:sum(packetBytes) 0
attr interpolationmode none
attr source dropPkByQueue
attr title "dropped packets, sum(packetBytes)"
scalar TestScenario2.switchA.eth[2].queuing.queues[4] rcvdPk:count 0
attr interpolationmode none
attr title "received packets, count"
scalar TestScenario2.switchA.eth[2].queuing.queues[4] rcvdPk:sum(packetBytes) 0
attr interpolationmode none
attr title "received packets, sum(packetBytes)"
statistic TestScenario2.switchA.eth[2].queuing.queues[4] queueingTime:histogram
field count 0
field mean -nan
field stddev -nan
field min -nan
field max -nan
field sum 0
field sqrsum 0
attr interpolationmode none
attr title "queueing time, histogram"
bin	-inf	0
bin	0	0
bin	1	0
scalar TestScenario2.switchA.eth[2].queuing.queues[4] queueLength:max 0
attr interpolationmode sample-hold
attr title "queue length, max"
scalar TestScenario2.switchA.eth[2].queuing.queues[4] queueLength:timeavg 0
attr interpolationmode sample-hold
attr title "queue length, timeavg"
scalar TestScenario2.switchA.eth[2].queuing.queues[5] dropPk:count 0
attr interpolationmode none
attr source dropPkByQueue
attr title "dropped packets, count"
scalar TestScenario2.switchA.eth[2].queuing.queues[5] dropPk:sum(packetBytes) 0
attr interpolationmode none
attr source dropPkByQueue
attr title "dropped packets, sum(packetBytes)"
scalar TestScenario2.switchA.eth[2].queuing.queues[5] rcvdPk:count 0
attr interpolationmode none
attr title "received packets, count"
scalar TestScenario2.switchA.eth[2].queuing.queues[5] rcvdPk:sum(packetBytes) 0
attr interpolationmode none
attr title "received packets, sum(packetBytes)"
statistic TestScenario2.switchA.eth[2].queuing.queues[5] queueingTime:histogram
field count 0
field mean -nan
field stddev -nan
field min -nan
field max -nan
field sum 0
field sqrsum 0
attr interpolationmode none
attr title "queueing time, histogram"
bin	-inf	0
bin	0	0
bin	1	0
scalar TestScenario2.switchA.eth[2].queuing.queues[5] queueLength:max 0
attr interpolationmode sample-hold
attr title "queue length, max"
scalar TestScenario2.switchA.eth[2].queuing.queues[5] queueLength:timeavg 0
attr interpolationmode sample-hold
attr title "queue length, timeavg"
scalar TestScenario2.switchA.eth[2].queuing.queues[6] dropPk:count 0
attr interpolationmode none
attr source dropPkByQueue
attr title "dropped packets, count"
scalar TestScenario2.switchA.eth[2].queuing.queues[6] dropPk:sum(packetBytes) 0
attr interpolationmode none
attr source dropPkByQueue
attr title "dropped packets, sum(packetBytes)"
scalar TestScenario2.switchA.eth[2].queuing.queues[6] rcvdPk:count 0
attr interpolationmode none
attr title "received packets, count"
scalar TestScenario2.switchA.eth[2].queuing.queues[6] rcvdPk:sum(packetBytes) 0
attr interpolationmode none
attr title "received packets, sum(packetBytes)"
statistic TestScenario2.switchA.eth[2].queuing.queues[6] queueingTime:histogram
field count 0
field mean -nan
field stddev -nan
field min -nan
field max -nan
field sum 0
field sqrsum 0
attr interpolationmode none
attr title "queueing time, histogram"
bin	-inf	0
bin	0	0
bin	1	0
scalar TestScenario2.switchA.eth[2].queuing.queues[6] queueLength:max 0
attr interpolationmode sample-hold
attr title "queue length, max"
scalar TestScenario2.switchA.eth[2].queuing.queues[6] queueLength:timeavg 0
attr interpolationmode sample-hold
attr title "queue length, timeavg"
scalar TestScenario2.switchA.eth[2].queuing.queues[7] dropPk:count 0
attr interpolationmode none
attr source dropPkByQueue
attr title "dropped packets, count"
scalar TestScenario2.switchA.eth[2].queuing.queues[7] dropPk:sum(packetBytes) 0
attr interpolationmode none
attr source dropPkByQueue
attr title "dropped packets, sum(packetBytes)"
scalar TestScenario2.switchA.eth[2].queuing.queues[7] rcvdPk:count 0
attr interpolationmode none
attr title "received packets, count"
scalar TestScenario2.switchA.eth[2].queuing.queues[7] rcvdPk:sum(packetBytes) 0
attr interpolationmode none
attr title "received packets, sum(packetBytes)"
statistic TestScenario2.switchA.eth[2].queuing.queues[7] queueingTime:histogram
field count 0
field mean -nan
field stddev -nan
field min -nan
field max -nan
field sum 0
field sqrsum 0
attr interpolationmode none
attr title "queueing time, histogram"
bin	-inf	0
bin	0	0
bin	1	0
scalar TestScenario2.switchA.eth[2].queuing.queues[7] queueLength:max 0
attr interpolationmode sample-hold
attr title "queue length, max"
scalar TestScenario2.switchA.eth[2].queuing.queues[7] queueLength:timeavg 0
attr interpolationmode sample-hold
attr title "queue length, timeavg"
scalar TestScenario2.switchA.eth[2].vlanEncapE decapPk:count 5
attr interpolationmode none
attr source decapPk
attr title "packets decapsulated, count"
scalar TestScenario2.switchA.eth[2].vlanEncapE decapPk:sum(packetBytes) 7480
attr interpolationmode none
attr source decapPk
attr title "packets decapsulated, sum(packetBytes)"
scalar TestScenario2.switchA.eth[2].vlanEncapE encapPk:count 0
attr interpolationmode none
attr source encapPk
attr title "packets encapsulated, count"
scalar TestScenario2.switchA.eth[2].vlanEncapE encapPk:sum(packetBytes) 0
attr interpolationmode none
attr source encapPk
attr title "packets encapsulated, sum(packetBytes)"
scalar TestScenario2.switchA.eth[2].etherEncapE pauseSent:count 0
attr title "pause sent, count"
scalar TestScenario2.switchA.eth[2].etherEncapE pauseSent:sum 0
attr title "pause sent, sum"
scalar TestScenario2.switchA.eth[2].etherEncapE decapPk:count 5
attr interpolationmode none
attr source decapPk
attr title "packets decapsulated, count"
scalar TestScenario2.switchA.eth[2].etherEncapE decapPk:sum(packetBytes) 7500
attr interpolationmode none
attr source decapPk
attr title "packets decapsulated, sum(packetBytes)"
scalar TestScenario2.switchA.eth[2].etherEncapE encapPk:count 0
attr interpolationmode none
attr source encapPk
attr title "packets encapsulated, count"
scalar TestScenario2.switchA.eth[2].etherEncapE encapPk:sum(packetBytes) 0
attr interpolationmode none
attr source encapPk
attr title "packets encapsulated, sum(packetBytes)"
scalar TestScenario2.switchA.eth[2].vlanEncapP decapPk:count 0
attr interpolationmode none
attr source decapPk
attr title "packets decapsulated, count"
scalar TestScenario2.switchA.eth[2].vlanEncapP decapPk:sum(packetBytes) 0
attr interpolationmode none
attr source decapPk
attr title "packets decapsulated, sum(packetBytes)"
scalar TestScenario2.switchA.eth[2].vlanEncapP encapPk:count 0
attr interpolationmode none
attr source encapPk
attr title "packets encapsulated, count"
scalar TestScenario2.switchA.eth[2].vlanEncapP encapPk:sum(packetBytes) 0
attr interpolationmode none
attr source encapPk
attr title "packets encapsulated, sum(packetBytes)"
scalar TestScenario2.switchA.eth[2].etherEncapP pauseSent:count 0
attr title "pause sent, count"
scalar TestScenario2.switchA.eth[2].etherEncapP pauseSent:sum 0
attr title "pause sent, sum"
scalar TestScenario2.switchA.eth[2].etherEncapP decapPk:count 0
attr interpolationmode none
attr source decapPk
attr title "packets decapsulated, count"
scalar TestScenario2.switchA.eth[2].etherEncapP decapPk:sum(packetBytes) 0
attr interpolationmode none
attr source decapPk
attr title "packets decapsulated, sum(packetBytes)"
scalar TestScenario2.switchA.eth[2].etherEncapP encapPk:count 0
attr interpolationmode none
attr source encapPk
attr title "packets encapsulated, count"
scalar TestScenario2.switchA.eth[2].etherEncapP encapPk:sum(packetBytes) 0
attr interpolationmode none
attr source encapPk
attr title "packets encapsulated, sum(packetBytes)"
scalar TestScenario2.switchA.eth[3].mac "simulated time" 6.1552279e-05
scalar TestScenario2.switchA.eth[3].mac full-duplex 1
scalar TestScenario2.switchA.eth[3].mac "frames/sec sent" 64985.408582516
scalar TestScenario2.switchA.eth[3].mac "frames/sec rcvd" 0
scalar TestScenario2.switchA.eth[3].mac "bits/sec sent" 640756128.6236
scalar TestScenario2.switchA.eth[3].mac "bits/sec rcvd" 0
scalar TestScenario2.switchA.eth[3].mac "rx channel idle (%)" 100
scalar TestScenario2.switchA.eth[3].mac "rx channel utilization (%)" 0
statistic TestScenario2.switchA.eth[3].mac pMacDelay:histogram
field count 0
field mean -nan
field stddev -nan
field min -nan
field max -nan
field sum 0
field sqrsum 0
attr interpolationmode none
attr title "pMacDelay, histogram"
bin	-inf	0
bin	0	0
bin	1	0
statistic TestScenario2.switchA.eth[3].mac eMacDelay:histogram
field count 5
field mean 0
field stddev 0
field min 0
field max 0
field sum 0
field sqrsum 0
attr interpolationmode none
attr title "eMacDelay, histogram"
bin	-inf	0
bin	-0.5	0
bin	-0.48	0
bin	-0.46	0
bin	-0.44	0
bin	-0.42	0
bin	-0.4	0
bin	-0.38	0
bin	-0.36	0
bin	-0.34	0
bin	-0.32	0
bin	-0.3	0
bin	-0.28	0
bin	-0.26	0
bin	-0.24	0
bin	-0.22	0
bin	-0.2	0
bin	-0.18	0
bin	-0.16	0
bin	-0.14	0
bin	-0.12	0
bin	-0.1	0
bin	-0.08	0
bin	-0.06	0
bin	-0.04	0
bin	-0.02	0
bin	0	5
bin	0.02	0
bin	0.04	0
bin	0.06	0
bin	0.08	0
bin	0.1	0
bin	0.12	0
bin	0.14	0
bin	0.16	0
bin	0.18	0
bin	0.2	0
bin	0.22	0
bin	0.24	0
bin	0.26	0
bin	0.28	0
bin	0.3	0
bin	0.32	0
bin	0.34	0
bin	0.36	0
bin	0.38	0
bin	0.4	0
bin	0.42	0
bin	0.44	0
bin	0.46	0
bin	0.48	0
bin	0.5	0
scalar TestScenario2.switchA.eth[3].mac expressFramesEnqueued:count 0
attr interpolationmode none
attr source expressFrameEnqueuedWhileSendingPreemptableSignal
attr title "express frames enqueued, count"
scalar TestScenario2.switchA.eth[3].mac mPacketsFull:count 0
attr interpolationmode none
attr source transmittedPreemptableFullSignal
attr title "mpackets full, count"
scalar TestScenario2.switchA.eth[3].mac mPacketsFinal:count 0
attr interpolationmode none
attr source transmittedPreemptableFinalSignal
attr title "mPackets final, count"
scalar TestScenario2.switchA.eth[3].mac mPacketsNonFinal:count 0
attr interpolationmode none
attr source transmittedPreemptableNonFinalSignal
attr title "mPackets non-final, count"
scalar TestScenario2.switchA.eth[3].mac mPackets:count 0
attr interpolationmode none
attr source transmittedPreemptableFramePartSignal
attr title "mPackets, count"
scalar TestScenario2.switchA.eth[3].mac preemptableFrames:count 0
attr interpolationmode none
attr source transmittedPreemptableFrameSignal
attr title "preemptableFrames, count"
scalar TestScenario2.switchA.eth[3].mac expressFrames:count 4
attr interpolationmode none
attr source transmittedExpressFrameSignal
attr title "expressFrames, count"
scalar TestScenario2.switchA.eth[3].mac preemptions:count 0
attr interpolationmode none
attr source preemptCurrentFrameSignal
attr title "preemptions, count"
scalar TestScenario2.switchA.eth[3].mac rxPausePkUnits:count 0
attr interpolationmode none
attr title "pause units received, count"
scalar TestScenario2.switchA.eth[3].mac rxPausePkUnits:sum 0
attr interpolationmode none
attr title "pause units received, sum"
scalar TestScenario2.switchA.eth[3].mac txPausePkUnits:count 0
attr interpolationmode none
attr title "pause units sent, count"
scalar TestScenario2.switchA.eth[3].mac txPausePkUnits:sum 0
attr interpolationmode none
attr title "pause units sent, sum"
scalar TestScenario2.switchA.eth[3].mac rxPkOk:count 0
attr interpolationmode none
attr source rxPkOk
attr title "packets received OK, count"
scalar TestScenario2.switchA.eth[3].mac rxPkOk:sum(packetBytes) 0
attr interpolationmode none
attr source rxPkOk
attr title "packets received OK, sum(packetBytes)"
scalar TestScenario2.switchA.eth[3].mac txPk:count 4
attr interpolationmode none
attr source packetSentToLower
attr title "packets transmitted, count"
scalar TestScenario2.switchA.eth[3].mac txPk:sum(packetBytes) 4930
attr interpolationmode none
attr source packetSentToLower
attr title "packets transmitted, sum(packetBytes)"
scalar TestScenario2.switchA.eth[3].mac packetReceivedFromUpper:count 5
attr interpolationmode none
attr source packetReceivedFromUpper
attr title "packet bytes from higher layer, count"
scalar TestScenario2.switchA.eth[3].mac packetReceivedFromUpper:sum(packetBytes) 6448
attr interpolationmode none
attr source packetReceivedFromUpper
attr title "packet bytes from higher layer, sum(packetBytes)"
scalar TestScenario2.switchA.eth[3].mac passedUpPk:count 0
attr interpolationmode none
attr source packetSentToUpper
attr title "packets passed to higher layer, count"
scalar TestScenario2.switchA.eth[3].mac passedUpPk:sum(packetBytes) 0
attr interpolationmode none
attr source packetSentToUpper
attr title "packets passed to higher layer, sum(packetBytes)"
scalar TestScenario2.switchA.eth[3].mac packetDropIncorrectlyReceived:count 0
attr interpolationmode none
attr source packetDropReasonIsIncorrectlyReceived(packetDropped)
attr title "packet drop: incorrectly received, count"
scalar TestScenario2.switchA.eth[3].mac packetDropIncorrectlyReceived:sum(packetBytes) 0
attr interpolationmode none
attr source packetDropReasonIsIncorrectlyReceived(packetDropped)
attr title "packet drop: incorrectly received, sum(packetBytes)"
scalar TestScenario2.switchA.eth[3].mac packetDropInterfaceDown:count 0
attr interpolationmode none
attr source packetDropReasonIsInterfaceDown(packetDropped)
attr title "packet drop: interface down, count"
scalar TestScenario2.switchA.eth[3].mac packetDropInterfaceDown:sum(packetBytes) 0
attr interpolationmode none
attr source packetDropReasonIsInterfaceDown(packetDropped)
attr title "packet drop: interface down, sum(packetBytes)"
scalar TestScenario2.switchA.eth[3].mac packetDropNotAddressedToUs:count 0
attr interpolationmode none
attr source packetDropReasonIsNotAddressedToUs(packetDropped)
attr title "packet drop: not addressed to us, count"
scalar TestScenario2.switchA.eth[3].mac packetDropNotAddressedToUs:sum(packetBytes) 0
attr interpolationmode none
attr source packetDropReasonIsNotAddressedToUs(packetDropped)
attr title "packet drop: not addressed to us, sum(packetBytes)"
scalar TestScenario2.switchA.eth[3].queuing.queues[0] dropPk:count 0
attr interpolationmode none
attr source dropPkByQueue
attr title "dropped packets, count"
scalar TestScenario2.switchA.eth[3].queuing.queues[0] dropPk:sum(packetBytes) 0
attr interpolationmode none
attr source dropPkByQueue
attr title "dropped packets, sum(packetBytes)"
scalar TestScenario2.switchA.eth[3].queuing.queues[0] rcvdPk:count 0
attr interpolationmode none
attr title "received packets, count"
scalar TestScenario2.switchA.eth[3].queuing.queues[0] rcvdPk:sum(packetBytes) 0
attr interpolationmode none
attr title "received packets, sum(packetBytes)"
statistic TestScenario2.switchA.eth[3].queuing.queues[0] queueingTime:histogram
field count 0
field mean -nan
field stddev -nan
field min -nan
field max -nan
field sum 0
field sqrsum 0
attr interpolationmode none
attr title "queueing time, histogram"
bin	-inf	0
bin	0	0
bin	1	0
scalar TestScenario2.switchA.eth[3].queuing.queues[0] queueLength:max 0
attr interpolationmode sample-hold
attr title "queue length, max"
scalar TestScenario2.switchA.eth[3].queuing.queues[0] queueLength:timeavg 0
attr interpolationmode sample-hold
attr title "queue length, timeavg"
scalar TestScenario2.switchA.eth[3].queuing.queues[1] dropPk:count 0
attr interpolationmode none
attr source dropPkByQueue
attr title "dropped packets, count"
scalar TestScenario2.switchA.eth[3].queuing.queues[1] dropPk:sum(packetBytes) 0
attr interpolationmode none
attr source dropPkByQueue
attr title "dropped packets, sum(packetBytes)"
scalar TestScenario2.switchA.eth[3].queuing.queues[1] rcvdPk:count 0
attr interpolationmode none
attr title "received packets, count"
scalar TestScenario2.switchA.eth[3].queuing.queues[1] rcvdPk:sum(packetBytes) 0
attr interpolationmode none
attr title "received packets, sum(packetBytes)"
statistic TestScenario2.switchA.eth[3].queuing.queues[1] queueingTime:histogram
field count 0
field mean -nan
field stddev -nan
field min -nan
field max -nan
field sum 0
field sqrsum 0
attr interpolationmode none
attr title "queueing time, histogram"
bin	-inf	0
bin	0	0
bin	1	0
scalar TestScenario2.switchA.eth[3].queuing.queues[1] queueLength:max 0
attr interpolationmode sample-hold
attr title "queue length, max"
scalar TestScenario2.switchA.eth[3].queuing.queues[1] queueLength:timeavg 0
attr interpolationmode sample-hold
attr title "queue length, timeavg"
scalar TestScenario2.switchA.eth[3].queuing.queues[2] dropPk:count 0
attr interpolationmode none
attr source dropPkByQueue
attr title "dropped packets, count"
scalar TestScenario2.switchA.eth[3].queuing.queues[2] dropPk:sum(packetBytes) 0
attr interpolationmode none
attr source dropPkByQueue
attr title "dropped packets, sum(packetBytes)"
scalar TestScenario2.switchA.eth[3].queuing.queues[2] rcvdPk:count 0
attr interpolationmode none
attr title "received packets, count"
scalar TestScenario2.switchA.eth[3].queuing.queues[2] rcvdPk:sum(packetBytes) 0
attr interpolationmode none
attr title "received packets, sum(packetBytes)"
statistic TestScenario2.switchA.eth[3].queuing.queues[2] queueingTime:histogram
field count 0
field mean -nan
field stddev -nan
field min -nan
field max -nan
field sum 0
field sqrsum 0
attr interpolationmode none
attr title "queueing time, histogram"
bin	-inf	0
bin	0	0
bin	1	0
scalar TestScenario2.switchA.eth[3].queuing.queues[2] queueLength:max 0
attr interpolationmode sample-hold
attr title "queue length, max"
scalar TestScenario2.switchA.eth[3].queuing.queues[2] queueLength:timeavg 0
attr interpolationmode sample-hold
attr title "queue length, timeavg"
scalar TestScenario2.switchA.eth[3].queuing.queues[3] dropPk:count 0
attr interpolationmode none
attr source dropPkByQueue
attr title "dropped packets, count"
scalar TestScenario2.switchA.eth[3].queuing.queues[3] dropPk:sum(packetBytes) 0
attr interpolationmode none
attr source dropPkByQueue
attr title "dropped packets, sum(packetBytes)"
scalar TestScenario2.switchA.eth[3].queuing.queues[3] rcvdPk:count 0
attr interpolationmode none
attr title "received packets, count"
scalar TestScenario2.switchA.eth[3].queuing.queues[3] rcvdPk:sum(packetBytes) 0
attr interpolationmode none
attr title "received packets, sum(packetBytes)"
statistic TestScenario2.switchA.eth[3].queuing.queues[3] queueingTime:histogram
field count 0
field mean -nan
field stddev -nan
field min -nan
field max -nan
field sum 0
field sqrsum 0
attr interpolationmode none
attr title "queueing time, histogram"
bin	-inf	0
bin	0	0
bin	1	0
scalar TestScenario2.switchA.eth[3].queuing.queues[3] queueLength:max 0
attr interpolationmode sample-hold
attr title "queue length, max"
scalar TestScenario2.switchA.eth[3].queuing.queues[3] queueLength:timeavg 0
attr interpolationmode sample-hold
attr title "queue length, timeavg"
scalar TestScenario2.switchA.eth[3].queuing.queues[4] dropPk:count 0
attr interpolationmode none
attr source dropPkByQueue
attr title "dropped packets, count"
scalar TestScenario2.switchA.eth[3].queuing.queues[4] dropPk:sum(packetBytes) 0
attr interpolationmode none
attr source dropPkByQueue
attr title "dropped packets, sum(packetBytes)"
scalar TestScenario2.switchA.eth[3].queuing.queues[4] rcvdPk:count 0
attr interpolationmode none
attr title "received packets, count"
scalar TestScenario2.switchA.eth[3].queuing.queues[4] rcvdPk:sum(packetBytes) 0
attr interpolationmode none
attr title "received packets, sum(packetBytes)"
statistic TestScenario2.switchA.eth[3].queuing.queues[4] queueingTime:histogram
field count 0
field mean -nan
field stddev -nan
field min -nan
field max -nan
field sum 0
field sqrsum 0
attr interpolationmode none
attr title "queueing time, histogram"
bin	-inf	0
bin	0	0
bin	1	0
scalar TestScenario2.switchA.eth[3].queuing.queues[4] queueLength:max 0
attr interpolationmode sample-hold
attr title "queue length, max"
scalar TestScenario2.switchA.eth[3].queuing.queues[4] queueLength:timeavg 0
attr interpolationmode sample-hold
attr title "queue length, timeavg"
scalar TestScenario2.switchA.eth[3].queuing.queues[5] dropPk:count 0
attr interpolationmode none
attr source dropPkByQueue
attr title "dropped packets, count"
scalar TestScenario2.switchA.eth[3].queuing.queues[5] dropPk:sum(packetBytes) 0
attr interpolationmode none
attr source dropPkByQueue
attr title "dropped packets, sum(packetBytes)"
scalar TestScenario2.switchA.eth[3].queuing.queues[5] rcvdPk:count 4
attr interpolationmode none
attr title "received packets, count"
scalar TestScenario2.switchA.eth[3].queuing.queues[5] rcvdPk:sum(packetBytes) 5984
attr interpolationmode none
attr title "received packets, sum(packetBytes)"
statistic TestScenario2.switchA.eth[3].queuing.queues[5] queueingTime:histogram
field count 0
field mean -nan
field stddev -nan
field min -nan
field max -nan
field sum 0
field sqrsum 0
attr interpolationmode none
attr title "queueing time, histogram"
bin	-inf	0
bin	0	0
bin	1	0
scalar TestScenario2.switchA.eth[3].queuing.queues[5] queueLength:max 4
attr interpolationmode sample-hold
attr title "queue length, max"
scalar TestScenario2.switchA.eth[3].queuing.queues[5] queueLength:timeavg 1.6758618474549
attr interpolationmode sample-hold
attr title "queue length, timeavg"
scalar TestScenario2.switchA.eth[3].queuing.queues[6] dropPk:count 0
attr interpolationmode none
attr source dropPkByQueue
attr title "dropped packets, count"
scalar TestScenario2.switchA.eth[3].queuing.queues[6] dropPk:sum(packetBytes) 0
attr interpolationmode none
attr source dropPkByQueue
attr title "dropped packets, sum(packetBytes)"
scalar TestScenario2.switchA.eth[3].queuing.queues[6] rcvdPk:count 4
attr interpolationmode none
attr title "received packets, count"
scalar TestScenario2.switchA.eth[3].queuing.queues[6] rcvdPk:sum(packetBytes) 5984
attr interpolationmode none
attr title "received packets, sum(packetBytes)"
statistic TestScenario2.switchA.eth[3].queuing.queues[6] queueingTime:histogram
field count 4
field mean 2.376e-06
field stddev 1.584e-06
field min 0
field max 3.168e-06
field sum 9.504e-06
field sqrsum 3.0108672e-11
attr interpolationmode none
attr title "queueing time, histogram"
bin	-inf	0
bin	0	1
bin	5e-08	0
bin	1e-07	0
bin	1.5e-07	0
bin	2e-07	0
bin	2.5e-07	0
bin	3e-07	0
bin	3.5e-07	0
bin	4e-07	0
bin	4.5e-07	0
bin	5e-07	0
bin	5.5e-07	0
bin	6e-07	0
bin	6.5e-07	0
bin	7e-07	0
bin	7.5e-07	0
bin	8e-07	0
bin	8.5e-07	0
bin	9e-07	0
bin	9.5e-07	0
bin	1e-06	0
bin	1.05e-06	0
bin	1.1e-06	0
bin	1.15e-06	0
bin	1.2e-06	0
bin	1.25e-06	0
bin	1.3e-06	0
bin	1.35e-06	0
bin	1.4e-06	0
bin	1.45e-06	0
bin	1.5e-06	0
bin	1.55e-06	0
bin	1.6e-06	0
bin	1.65e-06	0
bin	1.7e-06	0
bin	1.75e-06	0
bin	1.8e-06	0
bin	1.85e-06	0
bin	1.9e-06	0
bin	1.95e-06	0
bin	2e-06	0
bin	2.05e-06	0
bin	2.1e-06	0
bin	2.15e-06	0
bin	2.2e-06	0
bin	2.25e-06	0
bin	2.3e-06	0
bin	2.35e-06	0
bin	2.4e-06	0
bin	2.45e-06	0
bin	2.5e-06	0
bin	2.55e-06	0
bin	2.6e-06	0
bin	2.65e-06	0
bin	2.7e-06	0
bin	2.75e-06	0
bin	2.8e-06	0
bin	2.85e-06	0
bin	2.9e-06	0
bin	2.95e-06	0
bin	3e-06	0
bin	3.05e-06	0
bin	3.1e-06	0
bin	3.15e-06	3
bin	3.2e-06	0
bin	3.25e-06	0
bin	3.3e-06	0
bin	3.35e-06	0
bin	3.4e-06	0
bin	3.45e-06	0
bin	3.5e-06	0
bin	3.55e-06	0
bin	3.6e-06	0
bin	3.65e-06	0
bin	3.7e-06	0
bin	3.75e-06	0
bin	3.8e-06	0
bin	3.85e-06	0
bin	3.9e-06	0
bin	3.95e-06	0
bin	4e-06	0
scalar TestScenario2.switchA.eth[3].queuing.queues[6] queueLength:max 1
attr interpolationmode sample-hold
attr title "queue length, max"
scalar TestScenario2.switchA.eth[3].queuing.queues[6] queueLength:timeavg 0.15440533079206
attr interpolationmode sample-hold
attr title "queue length, timeavg"
scalar TestScenario2.switchA.eth[3].queuing.queues[7] dropPk:count 0
attr interpolationmode none
attr source dropPkByQueue
attr title "dropped packets, count"
scalar TestScenario2.switchA.eth[3].queuing.queues[7] dropPk:sum(packetBytes) 0
attr interpolationmode none
attr source dropPkByQueue
attr title "dropped packets, sum(packetBytes)"
scalar TestScenario2.switchA.eth[3].queuing.queues[7] rcvdPk:count 1
attr interpolationmode none
attr title "received packets, count"
scalar TestScenario2.switchA.eth[3].queuing.queues[7] rcvdPk:sum(packetBytes) 354
attr interpolationmode none
attr title "received packets, sum(packetBytes)"
statistic TestScenario2.switchA.eth[3].queuing.queues[7] queueingTime:histogram
field count 1
field mean 1.144e-05
field stddev -nan
field min 1.144e-05
field max 1.144e-05
field sum 1.144e-05
field sqrsum 1.308736e-10
attr interpolationmode none
attr title "queueing time, histogram"
bin	-inf	0
bin	0	1
bin	0.01	0
bin	0.02	0
bin	0.03	0
bin	0.04	0
bin	0.05	0
bin	0.06	0
bin	0.07	0
bin	0.08	0
bin	0.09	0
bin	0.1	0
bin	0.11	0
bin	0.12	0
bin	0.13	0
bin	0.14	0
bin	0.15	0
bin	0.16	0
bin	0.17	0
bin	0.18	0
bin	0.19	0
bin	0.2	0
bin	0.21	0
bin	0.22	0
bin	0.23	0
bin	0.24	0
bin	0.25	0
bin	0.26	0
bin	0.27	0
bin	0.28	0
bin	0.29	0
bin	0.3	0
bin	0.31	0
bin	0.32	0
bin	0.33	0
bin	0.34	0
bin	0.35	0
bin	0.36	0
bin	0.37	0
bin	0.38	0
bin	0.39	0
bin	0.4	0
bin	0.41	0
bin	0.42	0
bin	0.43	0
bin	0.44	0
bin	0.45	0
bin	0.46	0
bin	0.47	0
bin	0.48	0
bin	0.49	0
bin	0.5	0
bin	0.51	0
scalar TestScenario2.switchA.eth[3].queuing.queues[7] queueLength:max 1
attr interpolationmode sample-hold
attr title "queue length, max"
scalar TestScenario2.switchA.eth[3].queuing.queues[7] queueLength:timeavg 0.18585826854599
attr interpolationmode sample-hold
attr title "queue length, timeavg"
scalar TestScenario2.switchA.eth[3].vlanEncapE decapPk:count 0
attr interpolationmode none
attr source decapPk
attr title "packets decapsulated, count"
scalar TestScenario2.switchA.eth[3].vlanEncapE decapPk:sum(packetBytes) 0
attr interpolationmode none
attr source decapPk
attr title "packets decapsulated, sum(packetBytes)"
scalar TestScenario2.switchA.eth[3].vlanEncapE encapPk:count 5
attr interpolationmode none
attr source encapPk
attr title "packets encapsulated, count"
scalar TestScenario2.switchA.eth[3].vlanEncapE encapPk:sum(packetBytes) 6358
attr interpolationmode none
attr source encapPk
attr title "packets encapsulated, sum(packetBytes)"
scalar TestScenario2.switchA.eth[3].etherEncapE pauseSent:count 0
attr title "pause sent, count"
scalar TestScenario2.switchA.eth[3].etherEncapE pauseSent:sum 0
attr title "pause sent, sum"
scalar TestScenario2.switchA.eth[3].etherEncapE decapPk:count 0
attr interpolationmode none
attr source decapPk
attr title "packets decapsulated, count"
scalar TestScenario2.switchA.eth[3].etherEncapE decapPk:sum(packetBytes) 0
attr interpolationmode none
attr source decapPk
attr title "packets decapsulated, sum(packetBytes)"
scalar TestScenario2.switchA.eth[3].etherEncapE encapPk:count 5
attr interpolationmode none
attr source encapPk
attr title "packets encapsulated, count"
scalar TestScenario2.switchA.eth[3].etherEncapE encapPk:sum(packetBytes) 6358
attr interpolationmode none
attr source encapPk
attr title "packets encapsulated, sum(packetBytes)"
scalar TestScenario2.switchA.eth[3].vlanEncapP decapPk:count 0
attr interpolationmode none
attr source decapPk
attr title "packets decapsulated, count"
scalar TestScenario2.switchA.eth[3].vlanEncapP decapPk:sum(packetBytes) 0
attr interpolationmode none
attr source decapPk
attr title "packets decapsulated, sum(packetBytes)"
scalar TestScenario2.switchA.eth[3].vlanEncapP encapPk:count 0
attr interpolationmode none
attr source encapPk
attr title "packets encapsulated, count"
scalar TestScenario2.switchA.eth[3].vlanEncapP encapPk:sum(packetBytes) 0
attr interpolationmode none
attr source encapPk
attr title "packets encapsulated, sum(packetBytes)"
scalar TestScenario2.switchA.eth[3].etherEncapP pauseSent:count 0
attr title "pause sent, count"
scalar TestScenario2.switchA.eth[3].etherEncapP pauseSent:sum 0
attr title "pause sent, sum"
scalar TestScenario2.switchA.eth[3].etherEncapP decapPk:count 0
attr interpolationmode none
attr source decapPk
attr title "packets decapsulated, count"
scalar TestScenario2.switchA.eth[3].etherEncapP decapPk:sum(packetBytes) 0
attr interpolationmode none
attr source decapPk
attr title "packets decapsulated, sum(packetBytes)"
scalar TestScenario2.switchA.eth[3].etherEncapP encapPk:count 0
attr interpolationmode none
attr source encapPk
attr title "packets encapsulated, count"
scalar TestScenario2.switchA.eth[3].etherEncapP encapPk:sum(packetBytes) 0
attr interpolationmode none
attr source encapPk
attr title "packets encapsulated, sum(packetBytes)"
scalar TestScenario2.switchA.eth[4].mac "simulated time" 6.1552279e-05
scalar TestScenario2.switchA.eth[4].mac full-duplex 1
scalar TestScenario2.switchA.eth[4].mac "frames/sec sent" 64985.408582516
scalar TestScenario2.switchA.eth[4].mac "frames/sec rcvd" 0
scalar TestScenario2.switchA.eth[4].mac "bits/sec sent" 640756128.6236
scalar TestScenario2.switchA.eth[4].mac "bits/sec rcvd" 0
scalar TestScenario2.switchA.eth[4].mac "rx channel idle (%)" 100
scalar TestScenario2.switchA.eth[4].mac "rx channel utilization (%)" 0
statistic TestScenario2.switchA.eth[4].mac pMacDelay:histogram
field count 0
field mean -nan
field stddev -nan
field min -nan
field max -nan
field sum 0
field sqrsum 0
attr interpolationmode none
attr title "pMacDelay, histogram"
bin	-inf	0
bin	0	0
bin	1	0
statistic TestScenario2.switchA.eth[4].mac eMacDelay:histogram
field count 5
field mean 0
field stddev 0
field min 0
field max 0
field sum 0
field sqrsum 0
attr interpolationmode none
attr title "eMacDelay, histogram"
bin	-inf	0
bin	-0.5	0
bin	-0.48	0
bin	-0.46	0
bin	-0.44	0
bin	-0.42	0
bin	-0.4	0
bin	-0.38	0
bin	-0.36	0
bin	-0.34	0
bin	-0.32	0
bin	-0.3	0
bin	-0.28	0
bin	-0.26	0
bin	-0.24	0
bin	-0.22	0
bin	-0.2	0
bin	-0.18	0
bin	-0.16	0
bin	-0.14	0
bin	-0.12	0
bin	-0.1	0
bin	-0.08	0
bin	-0.06	0
bin	-0.04	0
bin	-0.02	0
bin	0	5
bin	0.02	0
bin	0.04	0
bin	0.06	0
bin	0.08	0
bin	0.1	0
bin	0.12	0
bin	0.14	0
bin	0.16	0
bin	0.18	0
bin	0.2	0
bin	0.22	0
bin	0.24	0
bin	0.26	0
bin	0.28	0
bin	0.3	0
bin	0.32	0
bin	0.34	0
bin	0.36	0
bin	0.38	0
bin	0.4	0
bin	0.42	0
bin	0.44	0
bin	0.46	0
bin	0.48	0
bin	0.5	0
scalar TestScenario2.switchA.eth[4].mac expressFramesEnqueued:count 0
attr interpolationmode none
[...]
attr interpolationmode none
attr source packetReceived
attr title "packets received, count"
scalar TestScenario2.roboticArm.trafGenApp packetReceived:sum(packetBytes) 708
attr interpolationmode none
attr source packetReceived
attr title "packets received, sum(packetBytes)"
statistic TestScenario2.roboticArm.trafGenApp endToEndDelay:histogram
field count 2
field mean 3.961e-05
field stddev 1.2238604168777e-05
field min 3.0956e-05
field max 4.8264e-05
field sum 7.922e-05
field sqrsum 3.287687632e-09
attr interpolationmode none
attr source dataAge(packetReceived)
attr title "end-to-end delay, histogram"
attr unit s
bin	-inf	0
bin	2.65e-05	0
bin	2.7e-05	0
bin	2.75e-05	0
bin	2.8e-05	0
bin	2.85e-05	0
bin	2.9e-05	0
bin	2.95e-05	0
bin	3e-05	0
bin	3.05e-05	1
bin	3.1e-05	0
bin	3.15e-05	0
bin	3.2e-05	0
bin	3.25e-05	0
bin	3.3e-05	0
bin	3.35e-05	0
bin	3.4e-05	0
bin	3.45e-05	0
bin	3.5e-05	0
bin	3.55e-05	0
bin	3.6e-05	0
bin	3.65e-05	0
bin	3.7e-05	0
bin	3.75e-05	0
bin	3.8e-05	0
bin	3.85e-05	0
bin	3.9e-05	0
bin	3.95e-05	0
bin	4e-05	0
bin	4.05e-05	0
bin	4.1e-05	0
bin	4.15e-05	0
bin	4.2e-05	0
bin	4.25e-05	0
bin	4.3e-05	0
bin	4.35e-05	0
bin	4.4e-05	0
bin	4.45e-05	0
bin	4.5e-05	0
bin	4.55e-05	0
bin	4.6e-05	0
bin	4.65e-05	0
bin	4.7e-05	0
bin	4.75e-05	0
bin	4.8e-05	1
bin	4.85e-05	0
bin	4.9e-05	0
bin	4.95e-05	0
bin	5e-05	0
bin	5.05e-05	0
bin	5.1e-05	0
bin	5.15e-05	0
bin	5.2e-05	0
bin	5.25e-05	0
bin	5.3e-05	0
scalar TestScenario2.roboticArm.trafGenApp packetSent:count 0
attr interpolationmode none
attr source packetSent
attr title "packets sent, count"
scalar TestScenario2.roboticArm.trafGenApp packetSent:sum(packetBytes) 0
attr interpolationmode none
attr source packetSent
attr title "packets sent, sum(packetBytes)"
scalar TestScenario2.roboticArm.eth.mac "simulated time" 6.1552279e-05
scalar TestScenario2.roboticArm.eth.mac full-duplex 1
scalar TestScenario2.roboticArm.eth.mac "frames/sec sent" 0
scalar TestScenario2.roboticArm.eth.mac "frames/sec rcvd" 32492.704291258
scalar TestScenario2.roboticArm.eth.mac "bits/sec sent" 0
scalar TestScenario2.roboticArm.eth.mac "bits/sec rcvd" 97738054.508104
scalar TestScenario2.roboticArm.eth.mac "rx channel idle (%)" 100
scalar TestScenario2.roboticArm.eth.mac "rx channel utilization (%)" 0
statistic TestScenario2.roboticArm.eth.mac pMacDelay:histogram
field count 0
field mean -nan
field stddev -nan
field min -nan
field max -nan
field sum 0
field sqrsum 0
attr interpolationmode none
attr title "pMacDelay, histogram"
bin	-inf	0
bin	0	0
bin	1	0
statistic TestScenario2.roboticArm.eth.mac eMacDelay:histogram
field count 0
field mean -nan
field stddev -nan
field min -nan
field max -nan
field sum 0
field sqrsum 0
attr interpolationmode none
attr title "eMacDelay, histogram"
bin	-inf	0
bin	0	0
bin	1	0
scalar TestScenario2.roboticArm.eth.mac expressFramesEnqueued:count 0
attr interpolationmode none
attr source expressFrameEnqueuedWhileSendingPreemptableSignal
attr title "express frames enqueued, count"
scalar TestScenario2.roboticArm.eth.mac mPacketsFull:count 0
attr interpolationmode none
attr source transmittedPreemptableFullSignal
attr title "mpackets full, count"
scalar TestScenario2.roboticArm.eth.mac mPacketsFinal:count 0
attr interpolationmode none
attr source transmittedPreemptableFinalSignal
attr title "mPackets final, count"
scalar TestScenario2.roboticArm.eth.mac mPacketsNonFinal:count 0
attr interpolationmode none
attr source transmittedPreemptableNonFinalSignal
attr title "mPackets non-final, count"
scalar TestScenario2.roboticArm.eth.mac mPackets:count 0
attr interpolationmode none
attr source transmittedPreemptableFramePartSignal
attr title "mPackets, count"
scalar TestScenario2.roboticArm.eth.mac preemptableFrames:count 0
attr interpolationmode none
attr source transmittedPreemptableFrameSignal
attr title "preemptableFrames, count"
scalar TestScenario2.roboticArm.eth.mac expressFrames:count 0
attr interpolationmode none
attr source transmittedExpressFrameSignal
attr title "expressFrames, count"
scalar TestScenario2.roboticArm.eth.mac preemptions:count 0
attr interpolationmode none
attr source preemptCurrentFrameSignal
attr title "preemptions, count"
scalar TestScenario2.roboticArm.eth.mac rxPausePkUnits:count 0
attr interpolationmode none
attr title "pause units received, count"
scalar TestScenario2.roboticArm.eth.mac rxPausePkUnits:sum 0
attr interpolationmode none
attr title "pause units received, sum"
scalar TestScenario2.roboticArm.eth.mac txPausePkUnits:count 0
attr interpolationmode none
attr title "pause units sent, count"
scalar TestScenario2.roboticArm.eth.mac txPausePkUnits:sum 0
attr interpolationmode none
attr title "pause units sent, sum"
scalar TestScenario2.roboticArm.eth.mac rxPkOk:count 2
attr interpolationmode none
attr source rxPkOk
attr title "packets received OK, count"
scalar TestScenario2.roboticArm.eth.mac rxPkOk:sum(packetBytes) 752
attr interpolationmode none
attr source rxPkOk
attr title "packets received OK, sum(packetBytes)"
scalar TestScenario2.roboticArm.eth.mac txPk:count 0
attr interpolationmode none
attr source packetSentToLower
attr title "packets transmitted, count"
scalar TestScenario2.roboticArm.eth.mac txPk:sum(packetBytes) 0
attr interpolationmode none
attr source packetSentToLower
attr title "packets transmitted, sum(packetBytes)"
scalar TestScenario2.roboticArm.eth.mac packetReceivedFromUpper:count 0
attr interpolationmode none
attr source packetReceivedFromUpper
attr title "packet bytes from higher layer, count"
scalar TestScenario2.roboticArm.eth.mac packetReceivedFromUpper:sum(packetBytes) 0
attr interpolationmode none
attr source packetReceivedFromUpper
attr title "packet bytes from higher layer, sum(packetBytes)"
scalar TestScenario2.roboticArm.eth.mac passedUpPk:count 2
attr interpolationmode none
attr source packetSentToUpper
attr title "packets passed to higher layer, count"
scalar TestScenario2.roboticArm.eth.mac passedUpPk:sum(packetBytes) 752
attr interpolationmode none
attr source packetSentToUpper
attr title "packets passed to higher layer, sum(packetBytes)"
scalar TestScenario2.roboticArm.eth.mac packetDropIncorrectlyReceived:count 0
attr interpolationmode none
attr source packetDropReasonIsIncorrectlyReceived(packetDropped)
attr title "packet drop: incorrectly received, count"
scalar TestScenario2.roboticArm.eth.mac packetDropIncorrectlyReceived:sum(packetBytes) 0
attr interpolationmode none
attr source packetDropReasonIsIncorrectlyReceived(packetDropped)
attr title "packet drop: incorrectly received, sum(packetBytes)"
scalar TestScenario2.roboticArm.eth.mac packetDropInterfaceDown:count 0
attr interpolationmode none
attr source packetDropReasonIsInterfaceDown(packetDropped)
attr title "packet drop: interface down, count"
scalar TestScenario2.roboticArm.eth.mac packetDropInterfaceDown:sum(packetBytes) 0
attr interpolationmode none
attr source packetDropReasonIsInterfaceDown(packetDropped)
attr title "packet drop: interface down, sum(packetBytes)"
scalar TestScenario2.roboticArm.eth.mac packetDropNotAddressedToUs:count 0
attr interpolationmode none
attr source packetDropReasonIsNotAddressedToUs(packetDropped)
attr title "packet drop: not addressed to us, count"
scalar TestScenario2.roboticArm.eth.mac packetDropNotAddressedToUs:sum(packetBytes) 0
attr interpolationmode none
attr source packetDropReasonIsNotAddressedToUs(packetDropped)
attr title "packet drop: not addressed to us, sum(packetBytes)"
scalar TestScenario2.roboticArm.eth.queuing.queues[0] dropPk:count 0
attr interpolationmode none
attr source dropPkByQueue
attr title "dropped packets, count"
scalar TestScenario2.roboticArm.eth.queuing.queues[0] dropPk:sum(packetBytes) 0
attr interpolationmode none
attr source dropPkByQueue
attr title "dropped packets, sum(packetBytes)"
scalar TestScenario2.roboticArm.eth.queuing.queues[0] rcvdPk:count 0
attr interpolationmode none
attr title "received packets, count"
scalar TestScenario2.roboticArm.eth.queuing.queues[0] rcvdPk:sum(packetBytes) 0
attr interpolationmode none
attr title "received packets, sum(packetBytes)"
statistic TestScenario2.roboticArm.eth.queuing.queues[0] queueingTime:histogram
field count 0
field mean -nan
field stddev -nan
field min -nan
field max -nan
field sum 0
field sqrsum 0
attr interpolationmode none
attr title "queueing time, histogram"
bin	-inf	0
bin	0	0
bin	1	0
scalar TestScenario2.roboticArm.eth.queuing.queues[0] queueLength:max 0
attr interpolationmode sample-hold
attr title "queue length, max"
scalar TestScenario2.roboticArm.eth.queuing.queues[0] queueLength:timeavg 0
attr interpolationmode sample-hold
attr title "queue length, timeavg"
scalar TestScenario2.roboticArm.eth.queuing.queues[1] dropPk:count 0
attr interpolationmode none
attr source dropPkByQueue
attr title "dropped packets, count"
scalar TestScenario2.roboticArm.eth.queuing.queues[1] dropPk:sum(packetBytes) 0
attr interpolationmode none
attr source dropPkByQueue
attr title "dropped packets, sum(packetBytes)"
scalar TestScenario2.roboticArm.eth.queuing.queues[1] rcvdPk:count 0
attr interpolationmode none
attr title "received packets, count"
scalar TestScenario2.roboticArm.eth.queuing.queues[1] rcvdPk:sum(packetBytes) 0
attr interpolationmode none
attr title "received packets, sum(packetBytes)"
statistic TestScenario2.roboticArm.eth.queuing.queues[1] queueingTime:histogram
field count 0
field mean -nan
field stddev -nan
field min -nan
field max -nan
field sum 0
field sqrsum 0
attr interpolationmode none
attr title "queueing time, histogram"
bin	-inf	0
bin	0	0
bin	1	0
scalar TestScenario2.roboticArm.eth.queuing.queues[1] queueLength:max 0
attr interpolationmode sample-hold
attr title "queue length, max"
scalar TestScenario2.roboticArm.eth.queuing.queues[1] queueLength:timeavg 0
attr interpolationmode sample-hold
attr title "queue length, timeavg"
scalar TestScenario2.roboticArm.eth.queuing.queues[2] dropPk:count 0
attr interpolationmode none
attr source dropPkByQueue
attr title "dropped packets, count"
scalar TestScenario2.roboticArm.eth.queuing.queues[2] dropPk:sum(packetBytes) 0
attr interpolationmode none
attr source dropPkByQueue
attr title "dropped packets, sum(packetBytes)"
scalar TestScenario2.roboticArm.eth.queuing.queues[2] rcvdPk:count 0
attr interpolationmode none
attr title "received packets, count"
scalar TestScenario2.roboticArm.eth.queuing.queues[2] rcvdPk:sum(packetBytes) 0
attr interpolationmode none
attr title "received packets, sum(packetBytes)"
statistic TestScenario2.roboticArm.eth.queuing.queues[2] queueingTime:histogram
field count 0
field mean -nan
field stddev -nan
field min -nan
field max -nan
field sum 0
field sqrsum 0
attr interpolationmode none
attr title "queueing time, histogram"
bin	-inf	0
bin	0	0
bin	1	0
scalar TestScenario2.roboticArm.eth.queuing.queues[2] queueLength:max 0
attr interpolationmode sample-hold
attr title "queue length, max"
scalar TestScenario2.roboticArm.eth.queuing.queues[2] queueLength:timeavg 0
attr interpolationmode sample-hold
attr title "queue length, timeavg"
scalar TestScenario2.roboticArm.eth.queuing.queues[3] dropPk:count 0
attr interpolationmode none
attr source dropPkByQueue
attr title "dropped packets, count"
scalar TestScenario2.roboticArm.eth.queuing.queues[3] dropPk:sum(packetBytes) 0
attr interpolationmode none
attr source dropPkByQueue
attr title "dropped packets, sum(packetBytes)"
scalar TestScenario2.roboticArm.eth.queuing.queues[3] rcvdPk:count 0
attr interpolationmode none
attr title "received packets, count"
scalar TestScenario2.roboticArm.eth.queuing.queues[3] rcvdPk:sum(packetBytes) 0
attr interpolationmode none
attr title "received packets, sum(packetBytes)"
statistic TestScenario2.roboticArm.eth.queuing.queues[3] queueingTime:histogram
field count 0
field mean -nan
field stddev -nan
field min -nan
field max -nan
field sum 0
field sqrsum 0
attr interpolationmode none
attr title "queueing time, histogram"
bin	-inf	0
bin	0	0
bin	1	0
scalar TestScenario2.roboticArm.eth.queuing.queues[3] queueLength:max 0
attr interpolationmode sample-hold
attr title "queue length, max"
scalar TestScenario2.roboticArm.eth.queuing.queues[3] queueLength:timeavg 0
attr interpolationmode sample-hold
attr title "queue length, timeavg"
scalar TestScenario2.roboticArm.eth.queuing.queues[4] dropPk:count 0
attr interpolationmode none
attr source dropPkByQueue
attr title "dropped packets, count"
scalar TestScenario2.roboticArm.eth.queuing.queues[4] dropPk:sum(packetBytes) 0
attr interpolationmode none
attr source dropPkByQueue
attr title "dropped packets, sum(packetBytes)"
scalar TestScenario2.roboticArm.eth.queuing.queues[4] rcvdPk:count 0
attr interpolationmode none
attr title "received packets, count"
scalar TestScenario2.roboticArm.eth.queuing.queues[4] rcvdPk:sum(packetBytes) 0
attr interpolationmode none
attr title "received packets, sum(packetBytes)"
statistic TestScenario2.roboticArm.eth.queuing.queues[4] queueingTime:histogram
field count 0
field mean -nan
field stddev -nan
field min -nan
field max -nan
field sum 0
field sqrsum 0
attr interpolationmode none
attr title "queueing time, histogram"
bin	-inf	0
bin	0	0
bin	1	0
scalar TestScenario2.roboticArm.eth.queuing.queues[4] queueLength:max 0
attr interpolationmode sample-hold
attr title "queue length, max"
scalar TestScenario2.roboticArm.eth.queuing.queues[4] queueLength:timeavg 0
attr interpolationmode sample-hold
attr title "queue length, timeavg"
scalar TestScenario2.roboticArm.eth.queuing.queues[5] dropPk:count 0
attr interpolationmode none
attr source dropPkByQueue
attr title "dropped packets, count"
scalar TestScenario2.roboticArm.eth.queuing.queues[5] dropPk:sum(packetBytes) 0
attr interpolationmode none
attr source dropPkByQueue
attr title "dropped packets, sum(packetBytes)"
scalar TestScenario2.roboticArm.eth.queuing.queues[5] rcvdPk:count 0
attr interpolationmode none
attr title "received packets, count"
scalar TestScenario2.roboticArm.eth.queuing.queues[5] rcvdPk:sum(packetBytes) 0
attr interpolationmode none
attr title "received packets, sum(packetBytes)"
statistic TestScenario2.roboticArm.eth.queuing.queues[5] queueingTime:histogram
field count 0
field mean -nan
field stddev -nan
field min -nan
field max -nan
field sum 0
field sqrsum 0
attr interpolationmode none
attr title "queueing time, histogram"
bin	-inf	0
bin	0	0
bin	1	0
scalar TestScenario2.roboticArm.eth.queuing.queues[5] queueLength:max 0
attr interpolationmode sample-hold
attr title "queue length, max"
scalar TestScenario2.roboticArm.eth.queuing.queues[5] queueLength:timeavg 0
attr interpolationmode sample-hold
attr title "queue length, timeavg"
scalar TestScenario2.roboticArm.eth.queuing.queues[6] dropPk:count 0
attr interpolationmode none
attr source dropPkByQueue
attr title "dropped packets, count"
scalar TestScenario2.roboticArm.eth.queuing.queues[6] dropPk:sum(packetBytes) 0
attr interpolationmode none
attr source dropPkByQueue
attr title "dropped packets, sum(packetBytes)"
scalar TestScenario2.roboticArm.eth.queuing.queues[6] rcvdPk:count 0
attr interpolationmode none
attr title "received packets, count"
scalar TestScenario2.roboticArm.eth.queuing.queues[6] rcvdPk:sum(packetBytes) 0
attr interpolationmode none
attr title "received packets, sum(packetBytes)"
statistic TestScenario2.roboticArm.eth.queuing.queues[6] queueingTime:histogram
field count 0
field mean -nan
field stddev -nan
field min -nan
field max -nan
field sum 0
field sqrsum 0
attr interpolationmode none
attr title "queueing time, histogram"
bin	-inf	0
bin	0	0
bin	1	0
scalar TestScenario2.roboticArm.eth.queuing.queues[6] queueLength:max 0
attr interpolationmode sample-hold
attr title "queue length, max"
scalar TestScenario2.roboticArm.eth.queuing.queues[6] queueLength:timeavg 0
attr interpolationmode sample-hold
attr title "queue length, timeavg"
scalar TestScenario2.roboticArm.eth.queuing.queues[7] dropPk:count 0
attr interpolationmode none
attr source dropPkByQueue
attr title "dropped packets, count"
scalar TestScenario2.roboticArm.eth.queuing.queues[7] dropPk:sum(packetBytes) 0
attr interpolationmode none
attr source dropPkByQueue
attr title "dropped packets, sum(packetBytes)"
scalar TestScenario2.roboticArm.eth.queuing.queues[7] rcvdPk:count 0
attr interpolationmode none
attr title "received packets, count"
scalar TestScenario2.roboticArm.eth.queuing.queues[7] rcvdPk:sum(packetBytes) 0
attr interpolationmode none
attr title "received packets, sum(packetBytes)"
statistic TestScenario2.roboticArm.eth.queuing.queues[7] queueingTime:histogram
field count 0
field mean -nan
field stddev -nan
field min -nan
field max -nan
field sum 0
field sqrsum 0
attr interpolationmode none
attr title "queueing time, histogram"
bin	-inf	0
bin	0	0
bin	1	0
scalar TestScenario2.roboticArm.eth.queuing.queues[7] queueLength:max 0
attr interpolationmode sample-hold
attr title "queue length, max"
scalar TestScenario2.roboticArm.eth.queuing.queues[7] queueLength:timeavg 0
attr interpolationmode sample-hold
attr title "queue length, timeavg"
scalar TestScenario2.roboticArm.eth.vlanEncapE decapPk:count 2
attr interpolationmode none
attr source decapPk
attr title "packets decapsulated, count"
scalar TestScenario2.roboticArm.eth.vlanEncapE decapPk:sum(packetBytes) 708
attr interpolationmode none
attr source decapPk
attr title "packets decapsulated, sum(packetBytes)"
scalar TestScenario2.roboticArm.eth.vlanEncapE encapPk:count 0
attr interpolationmode none
attr source encapPk
attr title "packets encapsulated, count"
scalar TestScenario2.roboticArm.eth.vlanEncapE encapPk:sum(packetBytes) 0
attr interpolationmode none
attr source encapPk
attr title "packets encapsulated, sum(packetBytes)"
scalar TestScenario2.roboticArm.eth.etherEncapE pauseSent:count 0
attr title "pause sent, count"
scalar TestScenario2.roboticArm.eth.etherEncapE pauseSent:sum 0
attr title "pause sent, sum"
scalar TestScenario2.roboticArm.eth.etherEncapE decapPk:count 2
attr interpolationmode none
attr source decapPk
attr title "packets decapsulated, count"
scalar TestScenario2.roboticArm.eth.etherEncapE decapPk:sum(packetBytes) 716
attr interpolationmode none
attr source decapPk
attr title "packets decapsulated, sum(packetBytes)"
scalar TestScenario2.roboticArm.eth.etherEncapE encapPk:count 0
attr interpolationmode none
attr source encapPk
attr title "packets encapsulated, count"
scalar TestScenario2.roboticArm.eth.etherEncapE encapPk:sum(packetBytes) 0
attr interpolationmode none
attr source encapPk
attr title "packets encapsulated, sum(packetBytes)"
scalar TestScenario2.roboticArm.eth.vlanEncapP decapPk:count 0
attr interpolationmode none
attr source decapPk
attr title "packets decapsulated, count"
scalar TestScenario2.roboticArm.eth.vlanEncapP decapPk:sum(packetBytes) 0
attr interpolationmode none
attr source decapPk
attr title "packets decapsulated, sum(packetBytes)"
scalar TestScenario2.roboticArm.eth.vlanEncapP encapPk:count 0
attr interpolationmode none
attr source encapPk
attr title "packets encapsulated, count"
scalar TestScenario2.roboticArm.eth.vlanEncapP encapPk:sum(packetBytes) 0
attr interpolationmode none
attr source encapPk
attr title "packets encapsulated, sum(packetBytes)"
scalar TestScenario2.roboticArm.eth.etherEncapP pauseSent:count 0
attr title "pause sent, count"
scalar TestScenario2.roboticArm.eth.etherEncapP pauseSent:sum 0
attr title "pause sent, sum"
scalar TestScenario2.roboticArm.eth.etherEncapP decapPk:count 0
attr interpolationmode none
attr source decapPk
attr title "packets decapsulated, count"
scalar TestScenario2.roboticArm.eth.etherEncapP decapPk:sum(packetBytes) 0
attr interpolationmode none
attr source decapPk
attr title "packets decapsulated, sum(packetBytes)"
scalar TestScenario2.roboticArm.eth.etherEncapP encapPk:count 0
attr interpolationmode none
attr source encapPk
attr title "packets encapsulated, count"
scalar TestScenario2.roboticArm.eth.etherEncapP encapPk:sum(packetBytes) 0
attr interpolationmode none
attr source encapPk
attr title "packets encapsulated, sum(packetBytes)"

